27

Co      0.0000  0.0000  0.0000
Cl      0.0002  -2.3090  -0.2186
Cl      -0.0001  2.3091  0.2187
N       -1.4307  0.1486  -1.3507
N       -1.4307  -0.1487  1.3506
N       1.4307  0.1485  -1.3507
N       1.4306  -0.1483  1.3507
C       -2.7756  0.3983  -0.6593
C       -2.7758  -0.3976  0.6593
C       2.7757  0.3983  -0.6594
C       2.7758  -0.3972  0.6595
H       -1.3242  0.8876  -2.0254
H       -2.7118  1.4584  -0.4429
H       -3.6656  0.2168  -1.2501
H       -3.6633  -0.2157  1.2525
H       -2.7125  -1.4591  0.4430
H       -1.5053  0.7043  1.8725
H       -1.3247  -0.8881  2.0249
H       1.5078  -0.7049  -1.8718
H       1.3244  0.8873  -2.0256
H       3.6656  0.2164  -1.2502
H       2.7119  1.4598  -0.4436
H       2.7127  -1.4587  0.4436
H       3.6655  -0.2148  1.2504
H       1.3246  -0.8873  2.0253
H       1.5073  0.7050  1.8722
H       -1.5078  -0.7046  -1.8722
