27

Co      0.0000  0.0000  0.0000
Cl      0.0002  -2.2637  -0.2151
Cl      -0.0001  2.2637  0.2152
N       -1.4366  0.1423  -1.3169
N       -1.4366  -0.1424  1.3168
N       1.4367  0.1422  -1.3168
N       1.4366  -0.1419  1.3168
C       -2.7539  0.4025  -0.6416
C       -2.7542  -0.4018  0.6415
C       2.7540  0.4025  -0.6417
C       2.7542  -0.4014  0.6418
H       -1.3716  0.8770  -2.0085
H       -2.7783  1.4616  -0.4444
H       -3.5745  0.1588  -1.2960
H       -3.5722  -0.1577  1.2984
H       -2.7789  -1.4609  0.4444
H       -1.6110  0.6894  1.8653
H       -1.3721  -0.8775  2.0081
H       1.6135  -0.6900  -1.8646
H       1.3718  0.8767  -2.0088
H       3.5744  0.1584  -1.2961
H       2.7784  1.4616  -0.4450
H       2.7792  -1.4605  0.4451
H       3.5744  -0.1568  1.2963
H       1.3720  -0.8767  2.0084
H       1.6130  0.6901  1.8650
H       -1.6135  -0.6897  -1.8650
