27

Co      -0.0125  0.0031  -0.0194
Cl      0.0002  -2.2931  -0.2131
Cl      -0.0001  2.2911  0.2152
N       -1.5073  0.1495  -1.3287
N       -1.5007  -0.1476  1.3102
N       1.4885  0.1563  -1.3419
N       1.5604  -0.1539  1.3971
C       -2.7990  0.4087  -0.6290
C       -2.7992  -0.4109  0.6376
C       2.7745  0.3990  -0.6239
C       2.8238  -0.4155  0.6522
H       -1.2210  0.9007  -1.9364
H       -2.8824  1.4580  -0.4012
H       -3.6257  0.1239  -1.2610
H       -3.6206  -0.1094  1.2683
H       -2.8974  -1.4622  0.4188
H       -1.4222  0.7423  1.7829
H       -1.1908  -0.8927  1.9151
H       1.4171  -0.7182  -1.8425
H       1.2131  0.9262  -1.9284
H       3.6043  0.1262  -1.2580
H       2.8511  1.4484  -0.3915
H       2.9154  -1.4669  0.4435
H       3.6852  -0.1013  1.2283
H       1.2808  -0.8980  2.0102
H       1.4984  0.7390  1.8650
H       -1.4366  -0.7357  -1.8047
