27

Co      0.0000  -0.0244  -0.0017
Cl      0.0002  -2.2549  -0.2153
Cl      -0.0001  2.2886  0.2188
N       -1.4974  0.1326  -1.3552
N       -1.4974  -0.1276  1.3534
N       1.4974  0.1344  -1.3551
N       1.4973  -0.1290  1.3535
C       -2.7915  0.4230  -0.6025
C       -2.7917  -0.4223  0.6041
C       2.7916  0.4229  -0.6026
C       2.7917  -0.4218  0.6044
H       -1.2110  0.8794  -1.9678
H       -2.8637  1.4686  -0.3536
H       -3.6414  0.1432  -1.2047
H       -3.6437  -0.1388  1.2043
H       -2.8643  -1.4679  0.3587
H       -1.4558  0.7835  1.7894
H       -1.2300  -0.8463  2.0027
H       1.4654  -0.7521  -1.8343
H       1.2112  0.8809  -1.9662
H       3.6414  0.1410  -1.2034
H       2.8671  1.4667  -0.3561
H       2.8679  -1.4656  0.3612
H       3.6414  -0.1360  1.2052
H       1.2299  -0.8473  2.0012
H       1.4514  0.7842  1.7909
H       -1.4673  -0.7519  -1.8328
