27

Co      -0.0370  -0.0244  -0.0017
Cl      0.0035  -2.2530  -0.2116
Cl      0.0031  2.2867  0.2150
N       -1.4573  0.1448  -1.3391
N       -1.4573  -0.1399  1.3374
N       1.4909  0.1499  -1.3614
N       1.4908  -0.1446  1.3597
C       -2.7817  0.4047  -0.6162
C       -2.7820  -0.4040  0.6179
C       2.8096  0.4056  -0.6160
C       2.8097  -0.4045  0.6178
H       -1.2731  0.9102  -1.9611
H       -2.8601  1.4565  -0.4058
H       -3.6092  0.1076  -1.2400
H       -3.6092  -0.1031  1.2418
H       -2.8608  -1.4558  0.4109
H       -1.5177  0.7259  1.8393
H       -1.2921  -0.8770  1.9960
H       1.5757  -0.6930  -1.9001
H       1.3339  0.9111  -1.9948
H       3.6483  0.1099  -1.2274
H       2.8875  1.4575  -0.4051
H       2.8883  -1.4564  0.4102
H       3.6483  -0.1049  1.2292
H       1.3526  -0.8775  2.0298
H       1.5617  0.7251  1.8568
H       -1.5314  -0.6943  -1.8827
