27

Co      0.0000  0.0244  0.0017
Cl      0.0002  -2.3001  -0.2194
Cl      -0.0001  2.2665  0.2161
N       -1.4497  0.1424  -1.3198
N       -1.4497  -0.1476  1.3214
N       1.4497  0.1423  -1.3197
N       1.4497  -0.1471  1.3214
C       -2.7224  0.4072  -0.6611
C       -2.7227  -0.4065  0.6594
C       2.7225  0.4072  -0.6612
C       2.7227  -0.4061  0.6596
H       -1.2664  0.8645  -1.9878
H       -2.7470  1.4648  -0.4492
H       -3.5503  0.1754  -1.3091
H       -3.5502  -0.1777  1.3076
H       -2.7476  -1.4641  0.4442
H       -1.4919  0.7034  1.8473
H       -1.2483  -0.8987  1.9520
H       1.4786  -0.7360  -1.8028
H       1.2666  0.8642  -1.9881
H       3.5502  0.1750  -1.3107
H       2.7456  1.4648  -0.4499
H       2.7465  -1.4637  0.4448
H       3.5502  -0.1768  1.3091
H       1.2483  -0.8979  1.9524
H       1.4916  0.7041  1.8470
H       -1.4787  -0.7357  -1.8032
