27

Co      0.0000  -0.0031  0.0194
Cl      0.0002  -2.2662  -0.2161
Cl      -0.0001  2.2683  0.2141
N       -1.4502  0.1468  -1.3632
N       -1.4175  -0.1490  1.3447
N       1.4502  0.1467  -1.3632
N       1.4175  -0.1485  1.3448
C       -2.7886  0.4043  -0.6685
C       -2.7643  -0.3933  0.6501
C       2.7887  0.4042  -0.6686
C       2.7643  -0.3929  0.6503
H       -1.3375  0.8776  -2.0449
H       -2.7296  1.4654  -0.4587
H       -3.6873  0.2118  -1.2416
H       -3.6482  -0.2291  1.2542
H       -2.6914  -1.4538  0.4239
H       -1.4947  0.6979  1.8750
H       -1.3195  -0.8966  2.0137
H       1.5299  -0.7118  -1.8743
H       1.3377  0.8773  -2.0451
H       3.6872  0.2114  -1.2418
H       2.7297  1.4668  -0.4593
H       2.6917  -1.4534  0.4246
H       3.6504  -0.2282  1.2521
H       1.3195  -0.8958  2.0141
H       1.4967  0.6986  1.8747
H       -1.5300  -0.7125  -1.8747
