27

Co      0.0000  0.0000  0.0000
Cl      0.0002  -2.2753  -0.2170
Cl      -0.0001  2.2754  0.2171
N       -1.5408  0.1360  -1.3689
N       -1.5408  -0.1361  1.3688
N       1.5408  0.1378  -1.3688
N       1.5408  -0.1375  1.3688
C       -2.7529  0.4264  -0.6181
C       -2.7531  -0.4257  0.6181
C       2.7529  0.4263  -0.6182
C       2.7531  -0.4252  0.6183
H       -1.2210  0.8698  -1.9845
H       -2.8735  1.4763  -0.3966
H       -3.6056  0.1021  -1.1973
H       -3.6079  -0.1010  1.1952
H       -2.8742  -1.4741  0.3966
H       -1.5482  0.7467  1.8430
H       -1.2215  -0.8703  1.9840
H       1.5443  -0.7474  -1.8442
H       1.2212  0.8714  -1.9828
H       3.6056  0.0998  -1.1975
H       2.8755  1.4730  -0.3991
H       2.8763  -1.4719  0.3992
H       3.6056  -0.0982  1.1976
H       1.2214  -0.8714  1.9825
H       1.5438  0.7475  1.8445
H       -1.5462  -0.7471  -1.8427
