27

Co      -0.0370  -0.0244  -0.0017
Cl      0.0035  -2.2762  -0.2142
Cl      0.0031  2.3099  0.2177
N       -1.4726  0.1454  -1.3889
N       -1.4333  -0.1405  1.3503
N       1.4669  0.1505  -1.3743
N       1.5061  -0.1452  1.4095
C       -2.7738  0.4072  -0.6235
C       -2.7495  -0.3991  0.6154
C       2.7771  0.4008  -0.6135
C       2.8018  -0.4070  0.6251
H       -1.2960  0.9121  -2.0099
H       -2.8426  1.4590  -0.4159
H       -3.6261  0.1102  -1.2152
H       -3.5819  -0.1107  1.2367
H       -2.8187  -1.4509  0.4038
H       -1.4911  0.7178  1.8659
H       -1.2659  -0.8889  1.9932
H       1.5491  -0.6848  -1.9268
H       1.3077  0.9229  -1.9920
H       3.6210  0.1174  -1.2222
H       2.8455  1.4526  -0.3980
H       2.8709  -1.4589  0.4203
H       3.6651  -0.1075  1.2044
H       1.3754  -0.8795  2.0786
H       1.5843  0.7243  1.9055
H       -1.5540  -0.6935  -1.9314
