27

Co      -0.0370  0.0031  -0.0194
Cl      0.0035  -2.3181  -0.2195
Cl      0.0031  2.3161  0.2216
N       -1.5241  0.1352  -1.3637
N       -1.5176  -0.1333  1.3451
N       1.5184  0.1422  -1.3491
N       1.5904  -0.1398  1.4043
C       -2.7382  0.4236  -0.6140
C       -2.7385  -0.4258  0.6225
C       2.7415  0.4172  -0.6039
C       2.7908  -0.4337  0.6322
H       -1.2020  0.8742  -1.9740
H       -2.8551  1.4725  -0.3902
H       -3.5865  0.1033  -1.2016
H       -3.5814  -0.0887  1.2089
H       -2.8700  -1.4752  0.4078
H       -1.5121  0.7503  1.8200
H       -1.1718  -0.8662  1.9527
H       1.5198  -0.7360  -1.8390
H       1.2137  0.8868  -1.9543
H       3.5814  0.1086  -1.2101
H       2.8584  1.4628  -0.3742
H       2.9226  -1.4814  0.4261
H       3.6624  -0.0837  1.1804
H       1.2813  -0.8587  2.0362
H       1.6011  0.7568  1.8614
H       -1.5265  -0.7437  -1.8418
