27

Co      0.0000  0.0000  0.0000
Cl      0.0002  -2.3171  -0.2205
Cl      -0.0001  2.3172  0.2206
N       -1.5237  0.1366  -1.3588
N       -1.5237  -0.1367  1.3587
N       1.5238  0.1384  -1.3587
N       1.5237  -0.1381  1.3588
C       -2.7544  0.4208  -0.6223
C       -2.7546  -0.4201  0.6223
C       2.7545  0.4208  -0.6224
C       2.7546  -0.4197  0.6225
H       -1.3168  0.8663  -2.0128
H       -2.8508  1.4751  -0.4180
H       -3.5991  0.1123  -1.2209
H       -3.5991  -0.1112  1.2211
H       -2.8514  -1.4730  0.4180
H       -1.6489  0.7158  1.8736
H       -1.3173  -0.8669  2.0123
H       1.6472  -0.7164  -1.8748
H       1.3170  0.8679  -2.0112
H       3.5991  0.1100  -1.2210
H       2.8528  1.4718  -0.4205
H       2.8536  -1.4707  0.4205
H       3.5990  -0.1085  1.2212
H       1.3172  -0.8680  2.0108
H       1.6467  0.7165  1.8752
H       -1.6491  -0.7161  -1.8733
