27

Co      -0.0370  0.0000  0.0000
Cl      0.0035  -2.2975  -0.2178
Cl      0.0031  2.2976  0.2179
N       -1.5037  0.1365  -1.3534
N       -1.5037  -0.1367  1.3533
N       1.5373  0.1435  -1.3757
N       1.5372  -0.1432  1.3757
C       -2.7831  0.4157  -0.6330
C       -2.7833  -0.4150  0.6329
C       2.8110  0.4167  -0.6327
C       2.8111  -0.4156  0.6328
H       -1.3176  0.8736  -2.0062
H       -2.8067  1.4686  -0.4043
H       -3.6307  0.1802  -1.2577
H       -3.6307  -0.1791  1.2579
H       -2.8074  -1.4678  0.4043
H       -1.5651  0.7246  1.8580
H       -1.3180  -0.8741  2.0057
H       1.6078  -0.7237  -1.8769
H       1.3784  0.8764  -2.0380
H       3.6698  0.1806  -1.2465
H       2.8346  1.4677  -0.4055
H       2.8354  -1.4666  0.4055
H       3.6698  -0.1790  1.2467
H       1.3785  -0.8764  2.0376
H       1.6073  0.7238  1.8773
H       -1.5654  -0.7250  -1.8577
