27

Co      0.0000  0.0244  0.0017
Cl      0.0002  -2.3008  -0.2138
Cl      -0.0001  2.2672  0.2106
N       -1.4208  0.1580  -1.3204
N       -1.4208  -0.1632  1.3220
N       1.4208  0.1561  -1.3203
N       1.4208  -0.1609  1.3220
C       -2.7977  0.3840  -0.6623
C       -2.7979  -0.3832  0.6606
C       2.7978  0.3839  -0.6624
C       2.7979  -0.3828  0.6608
H       -1.4004  0.9043  -2.0097
H       -2.7826  1.4435  -0.4661
H       -3.6130  0.1735  -1.3407
H       -3.6107  -0.1757  1.3414
H       -2.7832  -1.4442  0.4611
H       -1.5279  0.6526  1.9048
H       -1.3823  -0.9385  1.9739
H       1.5188  -0.6852  -1.8584
H       1.4006  0.9021  -2.0118
H       3.6130  0.1750  -1.3408
H       2.7808  1.4468  -0.4649
H       2.7816  -1.4457  0.4599
H       3.6129  -0.1768  1.3393
H       1.3822  -0.9359  1.9761
H       1.5318  0.6533  1.9026
H       -1.5170  -0.6849  -1.8607
