27

Co      -0.0125  0.0000  0.0000
Cl      0.0002  -2.3116  -0.2168
Cl      -0.0001  2.3117  0.2169
N       -1.4803  0.1422  -1.3395
N       -1.4410  -0.1424  1.3026
N       1.4615  0.1490  -1.3527
N       1.5008  -0.1487  1.3895
C       -2.8072  0.4091  -0.6195
C       -2.7828  -0.4011  0.6097
C       2.7827  0.3995  -0.6144
C       2.8074  -0.4057  0.6243
H       -1.3127  0.8818  -1.9955
H       -2.8904  1.4610  -0.4145
H       -3.6363  0.1018  -1.2400
H       -3.5921  -0.1056  1.2598
H       -2.8665  -1.4529  0.3973
H       -1.5015  0.7104  1.8264
H       -1.2640  -0.8922  1.9435
H       1.5313  -0.6997  -1.8860
H       1.3047  0.9073  -1.9874
H       3.6148  0.1040  -1.2356
H       2.8606  1.4514  -0.4048
H       2.8859  -1.4576  0.4220
H       3.6589  -0.0975  1.2161
H       1.3540  -0.8975  2.0386
H       1.5799  0.7071  1.9085
H       -1.5508  -0.7182  -1.8481
