27

Co      0.0000  -0.0244  -0.0017
Cl      0.0002  -2.2984  -0.2151
Cl      -0.0001  2.3321  0.2185
N       -1.5093  0.1504  -1.3768
N       -1.5093  -0.1455  1.3750
N       1.5094  0.1504  -1.3767
N       1.5093  -0.1450  1.3750
C       -2.7723  0.4227  -0.6344
C       -2.7725  -0.4220  0.6361
C       2.7724  0.4226  -0.6346
C       2.7725  -0.4215  0.6363
H       -1.2448  0.9222  -1.9607
H       -2.9134  1.4706  -0.4221
H       -3.5516  0.0982  -1.3127
H       -3.5538  -0.0937  1.3122
H       -2.9140  -1.4699  0.4272
H       -1.5355  0.7260  1.8709
H       -1.2637  -0.8891  1.9956
H       1.5469  -0.6946  -1.9140
H       1.2450  0.9219  -1.9610
H       3.5516  0.0978  -1.3128
H       2.9135  1.4706  -0.4228
H       2.9143  -1.4695  0.4279
H       3.5515  -0.0929  1.3146
H       1.2636  -0.8883  1.9960
H       1.5330  0.7267  1.8706
H       -1.5470  -0.6944  -1.9144
