27

Co      0.0370  0.0213  0.0211
Cl      -0.0030  -2.3053  -0.2186
Cl      -0.0034  2.2737  0.2133
N       -1.4734  0.1509  -1.3407
N       -1.4799  -0.1581  1.3607
N       1.4791  0.1456  -1.3552
N       1.4071  -0.1524  1.3016
C       -2.7890  0.3876  -0.6516
C       -2.7892  -0.3840  0.6413
C       2.7858  0.3939  -0.6619
C       2.7369  -0.3752  0.6321
H       -1.3926  0.8754  -2.0382
H       -2.7561  1.4501  -0.4502
H       -3.6905  0.1718  -1.2137
H       -3.6956  -0.1876  1.2050
H       -2.7424  -1.4444  0.4276
H       -1.5716  0.6771  1.9089
H       -1.4052  -0.9182  2.0233
H       1.5491  -0.7246  -1.8466
H       1.3813  0.8640  -2.0565
H       3.6955  0.1639  -1.2055
H       2.7549  1.4564  -0.4694
H       2.6923  -1.4357  0.4124
H       3.6145  -0.1890  1.2339
H       1.2955  -0.9260  1.9386
H       1.4802  0.6721  1.8687
H       -1.5443  -0.7164  -1.8427
