27

Co      0.0000  0.0000  0.0000
Cl      0.0002  -2.2876  -0.2122
Cl      -0.0001  2.2876  0.2123
N       -1.4500  0.1622  -1.3415
N       -1.4500  -0.1623  1.3414
N       1.4500  0.1603  -1.3414
N       1.4500  -0.1600  1.3414
C       -2.7705  0.3874  -0.6533
C       -2.7707  -0.3867  0.6533
C       2.7706  0.3873  -0.6535
C       2.7707  -0.3862  0.6535
H       -1.3905  0.9255  -1.9996
H       -2.8267  1.4483  -0.4812
H       -3.5887  0.1056  -1.2973
H       -3.5864  -0.1045  1.2997
H       -2.8273  -1.4476  0.4812
H       -1.6111  0.6507  1.9232
H       -1.3909  -0.9261  1.9991
H       1.6155  -0.6513  -1.9206
H       1.3907  0.9234  -2.0017
H       3.5886  0.1071  -1.2974
H       2.8249  1.4502  -0.4800
H       2.8258  -1.4491  0.4800
H       3.5886  -0.1055  1.2976
H       1.3908  -0.9234  2.0013
H       1.6150  0.6514  1.9210
H       -1.6136  -0.6510  -1.9229
