27

Co      0.0000  0.0000  0.0000
Cl      0.0002  -2.3135  -0.2205
Cl      -0.0001  2.3136  0.2206
N       -1.5130  0.1342  -1.3301
N       -1.5130  -0.1343  1.3300
N       1.5130  0.1360  -1.3300
N       1.5129  -0.1357  1.3300
C       -2.7568  0.4220  -0.6199
C       -2.7570  -0.4213  0.6199
C       2.7568  0.4220  -0.6200
C       2.7570  -0.4209  0.6201
H       -1.3025  0.8568  -1.9925
H       -2.8592  1.4763  -0.4156
H       -3.5884  0.1099  -1.2341
H       -3.5883  -0.1088  1.2342
H       -2.8598  -1.4741  0.4156
H       -1.6357  0.7230  1.8378
H       -1.3029  -0.8573  1.9920
H       1.6341  -0.7236  -1.8389
H       1.3027  0.8584  -1.9908
H       3.5883  0.1076  -1.2342
H       2.8612  1.4730  -0.4181
H       2.8620  -1.4719  0.4181
H       3.5883  -0.1061  1.2344
H       1.3028  -0.8584  1.9905
H       1.6336  0.7237  1.8393
H       -1.6360  -0.7233  -1.8374
