27

Co      0.0370  0.0000  0.0000
Cl      -0.0030  -2.2868  -0.2177
Cl      -0.0034  2.2869  0.2178
N       -1.4629  0.1456  -1.3662
N       -1.4629  -0.1458  1.3661
N       1.4294  0.1404  -1.3438
N       1.4293  -0.1401  1.3438
C       -2.7454  0.4065  -0.6396
C       -2.7456  -0.4058  0.6396
C       2.7177  0.4055  -0.6401
C       2.7178  -0.4044  0.6401
H       -1.3004  0.8887  -2.0158
H       -2.7858  1.4612  -0.4255
H       -3.5920  0.1508  -1.2551
H       -3.5920  -0.1497  1.2553
H       -2.7865  -1.4605  0.4256
H       -1.5247  0.7143  1.8794
H       -1.3008  -0.8892  2.0153
H       1.4807  -0.7165  -1.8608
H       1.2400  0.8871  -1.9826
H       3.5529  0.1477  -1.2666
H       2.7601  1.4602  -0.4275
H       2.7609  -1.4591  0.4275
H       3.5528  -0.1462  1.2667
H       1.2401  -0.8872  1.9823
H       1.4802  0.7166  1.8612
H       -1.5250  -0.7146  -1.8790
