27

Co      0.0000  0.0000  0.0000
Cl      0.0002  -2.2975  -0.2178
Cl      -0.0001  2.2976  0.2179
N       -1.5436  0.1383  -1.3629
N       -1.5436  -0.1384  1.3628
N       1.5436  0.1401  -1.3629
N       1.5436  -0.1398  1.3629
C       -2.7764  0.4058  -0.6111
C       -2.7767  -0.4051  0.6111
C       2.7765  0.4058  -0.6112
C       2.7766  -0.4047  0.6113
H       -1.3489  0.8889  -1.9941
H       -2.8541  1.4533  -0.3700
H       -3.5980  0.1441  -1.2593
H       -3.6003  -0.1430  1.2571
H       -2.8548  -1.4511  0.3701
H       -1.5313  0.7377  1.8519
H       -1.3494  -0.8894  1.9936
H       1.5274  -0.7383  -1.8531
H       1.3491  0.8904  -1.9925
H       3.5980  0.1418  -1.2594
H       2.8561  1.4500  -0.3725
H       2.8570  -1.4489  0.3726
H       3.5979  -0.1402  1.2596
H       1.3493  -0.8905  1.9921
H       1.5269  0.7384  1.8535
H       -1.5293  -0.7380  -1.8516
