27

Co      0.0370  0.0244  0.0017
Cl      -0.0030  -2.3259  -0.2203
Cl      -0.0034  2.2923  0.2170
N       -1.4610  0.1455  -1.3526
N       -1.4610  -0.1507  1.3542
N       1.4275  0.1402  -1.3302
N       1.4274  -0.1450  1.3319
C       -2.7647  0.4010  -0.6446
C       -2.7649  -0.4003  0.6429
C       2.7370  0.4000  -0.6451
C       2.7371  -0.3988  0.6435
H       -1.4215  0.8710  -2.0591
H       -2.7845  1.4600  -0.4503
H       -3.6016  0.1566  -1.2813
H       -3.5993  -0.1589  1.2821
H       -2.7852  -1.4593  0.4453
H       -1.6473  0.6647  1.9301
H       -1.4034  -0.9053  2.0233
H       1.5921  -0.6988  -1.8678
H       1.3611  0.8695  -2.0259
H       3.5624  0.1536  -1.2928
H       2.7588  1.4591  -0.4523
H       2.7596  -1.4580  0.4473
H       3.5624  -0.1554  1.2913
H       1.3427  -0.9033  1.9902
H       1.6050  0.6670  1.9120
H       -1.6364  -0.6970  -1.8860
