27

Co      -0.0370  0.0000  0.0000
Cl      0.0035  -2.2975  -0.2178
Cl      0.0031  2.2976  0.2179
N       -1.5176  0.1367  -1.3602
N       -1.5176  -0.1368  1.3601
N       1.5512  0.1437  -1.3824
N       1.5511  -0.1434  1.3825
C       -2.7808  0.4204  -0.6288
C       -2.7811  -0.4197  0.6288
C       2.8087  0.4214  -0.6285
C       2.8088  -0.4203  0.6286
H       -1.2177  0.8778  -1.9737
H       -2.8311  1.4689  -0.3846
H       -3.6340  0.1658  -1.2375
H       -3.6362  -0.1648  1.2354
H       -2.8318  -1.4682  0.3847
H       -1.4587  0.7548  1.8248
H       -1.2182  -0.8783  1.9732
H       1.4991  -0.7539  -1.8438
H       1.2785  0.8806  -2.0055
H       3.6731  0.1662  -1.2263
H       2.8590  1.4680  -0.3858
H       2.8598  -1.4669  0.3858
H       3.6730  -0.1646  1.2264
H       1.2787  -0.8806  2.0052
H       1.4986  0.7540  1.8442
H       -1.4567  -0.7552  -1.8245
