27

Co      -0.0125  0.0031  -0.0194
Cl      0.0002  -2.2941  -0.2149
Cl      -0.0001  2.2921  0.2170
N       -1.4771  0.1474  -1.3593
N       -1.4705  -0.1455  1.3408
N       1.4583  0.1541  -1.3725
N       1.5302  -0.1518  1.4277
C       -2.7640  0.4037  -0.6356
C       -2.7642  -0.4058  0.6442
C       2.7395  0.3940  -0.6304
C       2.7887  -0.4105  0.6587
H       -1.3073  0.9000  -1.9987
H       -2.8052  1.4574  -0.4198
H       -3.6044  0.1502  -1.2612
H       -3.5970  -0.1356  1.2708
H       -2.8202  -1.4615  0.4374
H       -1.5173  0.7110  1.8579
H       -1.2770  -0.8920  1.9774
H       1.5144  -0.6869  -1.9176
H       1.2994  0.9255  -1.9907
H       3.5829  0.1525  -1.2582
H       2.7740  1.4477  -0.4101
H       2.8382  -1.4663  0.4621
H       3.6639  -0.1276  1.2285
H       1.3670  -0.8973  2.0725
H       1.5957  0.7077  1.9400
H       -1.5339  -0.7044  -1.8797
