27

Co      0.0000  0.0000  0.0000
Cl      0.0002  -2.3171  -0.2205
Cl      -0.0001  2.3172  0.2206
N       -1.5376  0.1368  -1.3656
N       -1.5376  -0.1369  1.3655
N       1.5377  0.1386  -1.3655
N       1.5376  -0.1383  1.3655
C       -2.7521  0.4255  -0.6181
C       -2.7524  -0.4248  0.6181
C       2.7522  0.4255  -0.6182
C       2.7523  -0.4244  0.6183
H       -1.2170  0.8705  -1.9803
H       -2.8752  1.4754  -0.3983
H       -3.6024  0.0979  -1.2007
H       -3.6046  -0.0968  1.1985
H       -2.8758  -1.4733  0.3983
H       -1.5424  0.7460  1.8405
H       -1.2174  -0.8711  1.9799
H       1.5385  -0.7466  -1.8417
H       1.2172  0.8721  -1.9787
H       3.6024  0.0956  -1.2008
H       2.8772  1.4721  -0.4008
H       2.8780  -1.4710  0.4008
H       3.6023  -0.0941  1.2009
H       1.2173  -0.8722  1.9783
H       1.5380  0.7467  1.8421
H       -1.5404  -0.7464  -1.8402
