27

Co      0.0370  0.0000  0.0000
Cl      -0.0030  -2.2859  -0.2159
Cl      -0.0034  2.2859  0.2160
N       -1.4793  0.1476  -1.3288
N       -1.4793  -0.1477  1.3287
N       1.4457  0.1423  -1.3065
N       1.4457  -0.1420  1.3065
C       -2.7827  0.4069  -0.6372
C       -2.7829  -0.4062  0.6372
C       2.7549  0.4058  -0.6377
C       2.7551  -0.4047  0.6378
H       -1.3140  0.8852  -1.9860
H       -2.8386  1.4616  -0.4266
H       -3.6101  0.1389  -1.2752
H       -3.6101  -0.1378  1.2753
H       -2.8393  -1.4608  0.4266
H       -1.5361  0.7154  1.8374
H       -1.3145  -0.8857  1.9855
H       1.4920  -0.7176  -1.8189
H       1.2536  0.8836  -1.9528
H       3.5710  0.1359  -1.2866
H       2.8129  1.4606  -0.4286
H       2.8137  -1.4595  0.4286
H       3.5709  -0.1343  1.2868
H       1.2538  -0.8837  1.9524
H       1.4915  0.7177  1.8193
H       -1.5364  -0.7157  -1.8371
