27

Co      0.0370  0.0000  0.0000
Cl      -0.0030  -2.3090  -0.2186
Cl      -0.0034  2.3091  0.2187
N       -1.4749  0.1482  -1.3602
N       -1.4749  -0.1483  1.3601
N       1.4414  0.1429  -1.3379
N       1.4413  -0.1426  1.3379
C       -2.7624  0.4057  -0.6396
C       -2.7627  -0.4050  0.6396
C       2.7347  0.4046  -0.6401
C       2.7349  -0.4035  0.6401
H       -1.3123  0.8921  -2.0090
H       -2.8089  1.4604  -0.4281
H       -3.6048  0.1439  -1.2602
H       -3.6048  -0.1428  1.2604
H       -2.8095  -1.4596  0.4281
H       -1.5341  0.7109  1.8751
H       -1.3128  -0.8926  2.0085
H       1.4901  -0.7131  -1.8566
H       1.2519  0.8905  -1.9758
H       3.5657  0.1409  -1.2717
H       2.7831  1.4594  -0.4301
H       2.7840  -1.4583  0.4301
H       3.5656  -0.1393  1.2719
H       1.2521  -0.8906  1.9754
H       1.4896  0.7132  1.8569
H       -1.5344  -0.7112  -1.8748
