27

Co      0.0000  0.0244  0.0017
Cl      0.0002  -2.3063  -0.2176
Cl      -0.0001  2.2727  0.2143
N       -1.4684  0.1424  -1.3456
N       -1.4684  -0.1476  1.3471
N       1.4684  0.1424  -1.3455
N       1.4684  -0.1471  1.3472
C       -2.7664  0.4027  -0.6358
C       -2.7666  -0.4020  0.6341
C       2.7664  0.4027  -0.6359
C       2.7666  -0.4016  0.6343
H       -1.3801  0.8821  -2.0194
H       -2.8246  1.4550  -0.4225
H       -3.5528  0.1504  -1.3340
H       -3.5528  -0.1527  1.3325
H       -2.8253  -1.4543  0.4175
H       -1.5702  0.6809  1.9075
H       -1.3620  -0.9164  1.9836
H       1.5570  -0.7135  -1.8631
H       1.3803  0.8818  -2.0196
H       3.5528  0.1500  -1.3341
H       2.8247  1.4550  -0.4231
H       2.8256  -1.4539  0.4181
H       3.5527  -0.1518  1.3326
H       1.3619  -0.9156  1.9839
H       1.5700  0.6816  1.9072
H       -1.5570  -0.7132  -1.8635
