27

Co      0.0000  0.0000  0.0000
Cl      0.0002  -2.3135  -0.2205
Cl      -0.0001  2.3136  0.2206
N       -1.5085  0.1351  -1.3453
N       -1.5085  -0.1352  1.3452
N       1.5085  0.1369  -1.3453
N       1.5084  -0.1366  1.3453
C       -2.7793  0.4221  -0.6262
C       -2.7795  -0.4214  0.6262
C       2.7794  0.4221  -0.6263
C       2.7795  -0.4210  0.6264
H       -1.2176  0.8661  -1.9728
H       -2.8310  1.4706  -0.3807
H       -3.6268  0.1674  -1.2432
H       -3.6290  -0.1663  1.2411
H       -2.8317  -1.4699  0.3807
H       -1.4525  0.7639  1.8002
H       -1.2181  -0.8667  1.9723
H       1.4486  -0.7645  -1.8014
H       1.2178  0.8677  -1.9711
H       3.6267  0.1652  -1.2433
H       2.8330  1.4687  -0.3832
H       2.8339  -1.4676  0.3832
H       3.6267  -0.1636  1.2435
H       1.2180  -0.8678  1.9708
H       1.4481  0.7646  1.8018
H       -1.4505  -0.7642  -1.7999
