27

Co      0.0000  0.0000  0.0000
Cl      0.0002  -2.2654  -0.2113
Cl      -0.0001  2.2654  0.2114
N       -1.4519  0.1598  -1.3542
N       -1.4519  -0.1599  1.3541
N       1.4520  0.1579  -1.3542
N       1.4519  -0.1576  1.3542
C       -2.7512  0.3929  -0.6491
C       -2.7514  -0.3922  0.6491
C       2.7512  0.3929  -0.6493
C       2.7514  -0.3918  0.6493
H       -1.2786  0.9263  -1.9739
H       -2.8280  1.4495  -0.4589
H       -3.5792  0.0981  -1.2719
H       -3.5791  -0.0970  1.2721
H       -2.8287  -1.4488  0.4590
H       -1.4953  0.6843  1.8943
H       -1.2791  -0.9269  1.9735
H       1.4974  -0.6849  -1.8917
H       1.2788  0.9241  -1.9760
H       3.5791  0.0996  -1.2721
H       2.8263  1.4514  -0.4577
H       2.8271  -1.4503  0.4577
H       3.5791  -0.0980  1.2722
H       1.2790  -0.9242  1.9757
H       1.4969  0.6850  1.8921
H       -1.4955  -0.6847  -1.8940
