27

Co      0.0370  -0.0031  0.0194
Cl      -0.0030  -2.2848  -0.2169
Cl      -0.0034  2.2869  0.2150
N       -1.4774  0.1486  -1.3313
N       -1.4447  -0.1507  1.3127
N       1.4439  0.1433  -1.3089
N       1.4111  -0.1450  1.2905
C       -2.8037  0.3900  -0.6484
C       -2.7794  -0.3791  0.6300
C       2.7759  0.3890  -0.6489
C       2.7516  -0.3777  0.6306
H       -1.4663  0.8826  -2.0381
H       -2.7840  1.4501  -0.4442
H       -3.6533  0.1808  -1.2817
H       -3.6142  -0.1981  1.2943
H       -2.7458  -1.4371  0.4095
H       -1.5636  0.6845  1.8619
H       -1.4483  -0.9015  2.0069
H       1.5545  -0.7000  -1.8434
H       1.4059  0.8811  -2.0049
H       3.6142  0.1778  -1.2931
H       2.7582  1.4491  -0.4462
H       2.7202  -1.4357  0.4115
H       3.5773  -0.1946  1.3035
H       1.3877  -0.8995  1.9739
H       1.5212  0.6868  1.8438
H       -1.5988  -0.6992  -1.8616
