27

Co      -0.0125  0.0031  -0.0194
Cl      0.0002  -2.2931  -0.2131
Cl      -0.0001  2.2911  0.2152
N       -1.4594  0.1450  -1.3092
N       -1.4922  -0.1431  1.3275
N       1.4799  0.1518  -1.3592
N       1.5126  -0.1495  1.3777
C       -2.8004  0.4003  -0.6054
C       -2.8252  -0.4099  0.6238
C       2.8005  0.3980  -0.6101
C       2.8252  -0.4072  0.6286
H       -1.2949  0.8986  -1.9517
H       -2.8801  1.4512  -0.3894
H       -3.6118  0.1108  -1.2568
H       -3.6486  -0.0913  1.2467
H       -2.9196  -1.4627  0.4242
H       -1.5575  0.7186  1.8356
H       -1.3138  -0.8807  1.9819
H       1.5546  -0.6946  -1.8952
H       1.3361  0.9142  -1.9952
H       3.6345  0.1081  -1.2327
H       2.8748  1.4489  -0.3969
H       2.9145  -1.4601  0.4317
H       3.6713  -0.0881  1.2226
H       1.3547  -0.8959  2.0255
H       1.5868  0.7079  1.8956
H       -1.5250  -0.7047  -1.8353
