27

Co      0.0000  0.0244  0.0017
Cl      0.0002  -2.2841  -0.2167
Cl      -0.0001  2.2505  0.2135
N       -1.4734  0.1621  -1.3502
N       -1.4734  -0.1673  1.3518
N       1.4734  0.1620  -1.3502
N       1.4734  -0.1668  1.3519
C       -2.7356  0.4104  -0.6657
C       -2.7359  -0.4097  0.6640
C       2.7357  0.4104  -0.6658
C       2.7359  -0.4093  0.6642
H       -1.3234  0.8435  -2.0719
H       -2.7821  1.4680  -0.4591
H       -3.5682  0.1552  -1.2999
H       -3.5682  -0.1575  1.2984
H       -2.7828  -1.4673  0.4541
H       -1.5091  0.7201  1.8172
H       -1.3053  -0.8778  2.0361
H       1.4959  -0.7527  -1.7728
H       1.3236  0.8432  -2.0699
H       3.5682  0.1570  -1.3015
H       2.7808  1.4680  -0.4598
H       2.7816  -1.4669  0.4548
H       3.5681  -0.1588  1.3000
H       1.3030  -0.8770  2.0342
H       1.5088  0.7208  1.8169
H       -1.4959  -0.7524  -1.7731
