27

Co      0.0000  0.0000  0.0000
Cl      0.0002  -2.2913  -0.2197
Cl      -0.0001  2.2914  0.2198
N       -1.5163  0.1338  -1.3545
N       -1.4771  -0.1339  1.3176
N       1.4771  0.1356  -1.3176
N       1.5163  -0.1353  1.3544
C       -2.7585  0.4093  -0.6226
C       -2.7341  -0.4012  0.6128
C       2.7340  0.4019  -0.6129
C       2.7587  -0.4082  0.6228
H       -1.3583  0.8593  -2.0294
H       -2.7987  1.4635  -0.4022
H       -3.6257  0.1510  -1.2105
H       -3.5815  -0.1548  1.2303
H       -2.7748  -1.4540  0.3850
H       -1.5391  0.7292  1.8223
H       -1.3096  -0.8696  1.9774
H       1.5375  -0.7298  -1.8235
H       1.3094  0.8706  -1.9762
H       3.5815  0.1536  -1.2303
H       2.7761  1.4529  -0.3875
H       2.8015  -1.4592  0.4047
H       3.6257  -0.1472  1.2108
H       1.3586  -0.8609  2.0274
H       1.5861  0.7373  1.8460
H       -1.5885  -0.7369  -1.8441
