27

Co      0.0125  0.0213  0.0211
Cl      0.0002  -2.3027  -0.2204
Cl      -0.0001  2.2711  0.2151
N       -1.4535  0.1470  -1.3575
N       -1.4601  -0.1543  1.3775
N       1.4723  0.1401  -1.3442
N       1.4003  -0.1469  1.2907
C       -2.7223  0.4016  -0.6743
C       -2.7225  -0.3981  0.6640
C       2.7469  0.4112  -0.6796
C       2.6980  -0.3925  0.6498
H       -1.3858  0.8736  -2.0518
H       -2.7180  1.4646  -0.4835
H       -3.5655  0.1843  -1.3095
H       -3.5705  -0.2001  1.3008
H       -2.7043  -1.4589  0.4609
H       -1.6345  0.6568  1.9581
H       -1.3984  -0.9163  2.0369
H       1.6266  -0.7141  -1.8533
H       1.3941  0.8475  -2.0604
H       3.5868  0.1813  -1.3142
H       2.7480  1.4742  -0.4945
H       2.6854  -1.4535  0.4375
H       3.5058  -0.2064  1.3425
H       1.3083  -0.9095  1.9425
H       1.5578  0.6616  1.8753
H       -1.6072  -0.6961  -1.8919
