27

Co      0.0000  0.0000  0.0000
Cl      0.0002  -2.3036  -0.2148
Cl      -0.0001  2.3036  0.2149
N       -1.4380  0.1582  -1.3222
N       -1.4380  -0.1583  1.3221
N       1.4380  0.1562  -1.3222
N       1.4379  -0.1560  1.3222
C       -2.7528  0.3933  -0.6467
C       -2.7531  -0.3925  0.6467
C       2.7529  0.3932  -0.6469
C       2.7530  -0.3921  0.6469
H       -1.2602  0.9175  -1.9494
H       -2.8381  1.4498  -0.4582
H       -3.5652  0.0915  -1.2884
H       -3.5651  -0.0904  1.2886
H       -2.8387  -1.4491  0.4582
H       -1.4763  0.6907  1.8560
H       -1.2606  -0.9180  1.9490
H       1.4785  -0.6914  -1.8534
H       1.2604  0.9153  -1.9515
H       3.5651  0.0930  -1.2886
H       2.8363  1.4517  -0.4570
H       2.8371  -1.4506  0.4570
H       3.5651  -0.0914  1.2887
H       1.2605  -0.9154  1.9512
H       1.4779  0.6914  1.8538
H       -1.4766  -0.6911  -1.8556
