27

Co      0.0000  -0.0031  0.0194
Cl      0.0002  -2.2662  -0.2161
Cl      -0.0001  2.2683  0.2141
N       -1.4723  0.1481  -1.3374
N       -1.4789  -0.1503  1.3558
N       1.5116  0.1480  -1.3742
N       1.4396  -0.1498  1.3190
C       -2.7379  0.4075  -0.6669
C       -2.7381  -0.4039  0.6583
C       2.7625  0.4148  -0.6769
C       2.7135  -0.3961  0.6487
H       -1.2722  0.8893  -1.9774
H       -2.7671  1.4660  -0.4588
H       -3.5734  0.1701  -1.3016
H       -3.5807  -0.1825  1.2923
H       -2.7535  -1.4604  0.4412
H       -1.5216  0.7061  1.8706
H       -1.3033  -0.8984  1.9978
H       1.5546  -0.7200  -1.8699
H       1.3215  0.8792  -2.0292
H       3.6175  0.1648  -1.2835
H       2.7903  1.4734  -0.4766
H       2.7278  -1.4527  0.4247
H       3.5365  -0.1865  1.3135
H       1.2542  -0.9075  1.9466
H       1.4723  0.6994  1.8481
H       -1.5055  -0.7134  -1.8482
