27

Co      0.0370  0.0244  0.0017
Cl      -0.0030  -2.3223  -0.2203
Cl      -0.0034  2.2887  0.2170
N       -1.4354  0.1455  -1.3055
N       -1.4747  -0.1507  1.3439
N       1.4412  0.1403  -1.3199
N       1.4019  -0.1450  1.2848
C       -2.7548  0.4009  -0.6422
C       -2.7796  -0.4076  0.6503
C       2.7517  0.4073  -0.6525
C       2.7273  -0.3988  0.6410
H       -1.3098  0.8615  -2.0009
H       -2.7733  1.4624  -0.4490
H       -3.6172  0.1446  -1.2388
H       -3.6591  -0.1419  1.2199
H       -2.7985  -1.4690  0.4612
H       -1.6223  0.6876  1.8834
H       -1.3408  -0.8859  2.0166
H       1.5671  -0.7218  -1.8211
H       1.2985  0.8502  -2.0192
H       3.6222  0.1366  -1.2307
H       2.7721  1.4688  -0.4682
H       2.7484  -1.4603  0.4460
H       3.5780  -0.1433  1.2488
H       1.2311  -0.8937  1.9320
H       1.5309  0.6826  1.8432
H       -1.5623  -0.7126  -1.8173
