27

Co      0.0370  0.0244  0.0017
Cl      -0.0030  -2.3027  -0.2176
Cl      -0.0034  2.2691  0.2143
N       -1.4548  0.1426  -1.3096
N       -1.4941  -0.1478  1.3480
N       1.4605  0.1374  -1.3240
N       1.4212  -0.1421  1.2889
C       -2.7704  0.4008  -0.6283
C       -2.7952  -0.4074  0.6364
C       2.7672  0.4071  -0.6386
C       2.7428  -0.3986  0.6272
H       -1.3715  0.8781  -1.9900
H       -2.8336  1.4530  -0.4108
H       -3.5395  0.1518  -1.3513
H       -3.5837  -0.1491  1.3301
H       -2.8588  -1.4597  0.4230
H       -1.6038  0.6909  1.8922
H       -1.4025  -0.9025  2.0057
H       1.5462  -0.7251  -1.8299
H       1.3602  0.8668  -2.0083
H       3.5446  0.1438  -1.3431
H       2.8324  1.4594  -0.4300
H       2.8087  -1.4510  0.4078
H       3.5003  -0.1505  1.3612
H       1.2927  -0.9103  1.9211
H       1.5101  0.6859  1.8519
H       -1.5415  -0.7159  -1.8260
