27

Co      0.0000  0.0000  0.0000
Cl      0.0002  -2.2814  -0.2140
Cl      -0.0001  2.2814  0.2141
N       -1.4078  0.1576  -1.3214
N       -1.4078  -0.1578  1.3213
N       1.4078  0.1557  -1.3214
N       1.4078  -0.1554  1.3214
C       -2.7445  0.3721  -0.6488
C       -2.7447  -0.3714  0.6488
C       2.7446  0.3721  -0.6489
C       2.7447  -0.3710  0.6490
H       -1.3913  0.9207  -1.9931
H       -2.7409  1.4331  -0.4559
H       -3.5772  0.1495  -1.2949
H       -3.5749  -0.1484  1.2973
H       -2.7416  -1.4323  0.4559
H       -1.5108  0.6704  1.8847
H       -1.3918  -0.9212  1.9926
H       1.5151  -0.6710  -1.8821
H       1.3915  0.9185  -1.9952
H       3.5771  0.1509  -1.2951
H       2.7392  1.4350  -0.4547
H       2.7400  -1.4339  0.4547
H       3.5771  -0.1494  1.2952
H       1.3917  -0.9186  1.9948
H       1.5146  0.6711  1.8825
H       -1.5133  -0.6708  -1.8844
