27

Co      -0.0125  0.0031  -0.0194
Cl      0.0002  -2.2905  -0.2149
Cl      -0.0001  2.2885  0.2170
N       -1.4802  0.1452  -1.3373
N       -1.4736  -0.1432  1.3188
N       1.4614  0.1519  -1.3505
N       1.5334  -0.1496  1.4058
C       -2.7641  0.4096  -0.6290
C       -2.7643  -0.4117  0.6376
C       2.7396  0.3999  -0.6239
C       2.7889  -0.4164  0.6522
H       -1.1931  0.8946  -1.9459
H       -2.8380  1.4589  -0.3978
H       -3.5969  0.1334  -1.2541
H       -3.5918  -0.1189  1.2614
H       -2.8529  -1.4631  0.4154
H       -1.3977  0.7484  1.7889
H       -1.1628  -0.8866  1.9246
H       1.3925  -0.7243  -1.8485
H       1.1851  0.9201  -1.9379
H       3.5755  0.1357  -1.2511
H       2.8067  1.4493  -0.3880
H       2.8709  -1.4678  0.4400
H       3.6564  -0.1108  1.2214
H       1.2528  -0.8919  2.0197
H       1.4738  0.7451  1.8710
H       -1.4121  -0.7418  -1.8107
