27

Co      0.0000  0.0244  0.0017
Cl      0.0002  -2.3063  -0.2176
Cl      -0.0001  2.2727  0.2143
N       -1.4501  0.1457  -1.3472
N       -1.4501  -0.1509  1.3488
N       1.4501  0.1456  -1.3472
N       1.4501  -0.1504  1.3489
C       -2.7869  0.4156  -0.6623
C       -2.7872  -0.4149  0.6606
C       2.7870  0.4155  -0.6624
C       2.7872  -0.4144  0.6608
H       -1.3063  0.8626  -2.0360
H       -2.7829  1.4757  -0.4658
H       -3.6536  0.1757  -1.2613
H       -3.6513  -0.1780  1.2621
H       -2.7835  -1.4763  0.4608
H       -1.5899  0.6791  1.9012
H       -1.2882  -0.8968  2.0002
H       1.5789  -0.7117  -1.8568
H       1.3065  0.8623  -2.0363
H       3.6535  0.1753  -1.2615
H       2.7830  1.4771  -0.4664
H       2.7838  -1.4760  0.4614
H       3.6535  -0.1771  1.2599
H       1.2881  -0.8961  2.0006
H       1.5918  0.6798  1.9009
H       -1.5789  -0.7115  -1.8572
