27

Co      -0.0125  0.0031  -0.0194
Cl      0.0002  -2.2745  -0.2122
Cl      -0.0001  2.2725  0.2144
N       -1.5061  0.1493  -1.3634
N       -1.4995  -0.1474  1.3449
N       1.4873  0.1561  -1.3766
N       1.5593  -0.1537  1.4318
C       -2.7795  0.4084  -0.6314
C       -2.7798  -0.4105  0.6400
C       2.7551  0.3987  -0.6263
C       2.8043  -0.4152  0.6546
H       -1.2234  0.9069  -1.9636
H       -2.8510  1.4577  -0.4010
H       -3.6237  0.1332  -1.2427
H       -3.6186  -0.1186  1.2500
H       -2.8659  -1.4619  0.4186
H       -1.4260  0.7385  1.8230
H       -1.1932  -0.8989  1.9422
H       1.4208  -0.7145  -1.8826
H       1.2155  0.9323  -1.9555
H       3.6023  0.1354  -1.2397
H       2.8197  1.4481  -0.3913
H       2.8839  -1.4666  0.4433
H       3.6832  -0.1105  1.2100
H       1.2832  -0.9042  2.0374
H       1.5021  0.7352  1.9051
H       -1.4404  -0.7319  -1.8448
