27

Co      0.0000  0.0244  0.0017
Cl      0.0002  -2.2841  -0.2167
Cl      -0.0001  2.2505  0.2135
N       -1.4523  0.1446  -1.3447
N       -1.4523  -0.1497  1.3463
N       1.4523  0.1445  -1.3447
N       1.4522  -0.1492  1.3464
C       -2.7516  0.4038  -0.6497
C       -2.7518  -0.4031  0.6479
C       2.7516  0.4037  -0.6498
C       2.7518  -0.4026  0.6482
H       -1.3225  0.8648  -2.0344
H       -2.7626  1.4652  -0.4590
H       -3.6337  0.1474  -1.2182
H       -3.6314  -0.1496  1.2189
H       -2.7633  -1.4645  0.4540
H       -1.5945  0.6783  1.9013
H       -1.3044  -0.8990  1.9986
H       1.5836  -0.7109  -1.8568
H       1.3227  0.8645  -2.0347
H       3.6337  0.1470  -1.2183
H       2.7628  1.4653  -0.4596
H       2.7636  -1.4642  0.4546
H       3.6336  -0.1488  1.2168
H       1.3043  -0.8983  1.9990
H       1.5965  0.6790  1.9010
H       -1.5836  -0.7107  -1.8572
