27

Co      -0.0086  -0.0572  -0.0215
Cl      -1.0936  1.6354  -1.2221
Cl      1.2154  1.5510  1.4370
C       2.6755  -0.7232  -0.8453
C       2.1459  -1.9309  -0.0929
C       -2.5379  -1.3226  -0.4351
C       -2.4492  -1.1658  1.0727
N       1.5061  0.0657  -1.3299
N       1.0010  -1.5022  0.7933
N       -1.1508  -1.3409  -1.0148
N       -1.4823  -0.0673  1.3316
H       2.9233  -2.3915  0.5097
H       1.7707  -2.6762  -0.7818
H       -3.0445  -0.4786  -0.8668
H       -3.0724  -2.2207  -0.7163
H       1.7209  1.0497  -1.3417
H       1.2508  -0.1741  -2.2675
H       -1.9111  0.8298  1.2034
H       -1.1383  -0.0741  2.2752
H       -2.0910  -2.0625  1.5517
H       -3.4176  -0.9417  1.4845
H       0.4557  -2.3023  1.0536
H       1.3718  -1.1076  1.6433
H       3.3051  -1.0293  -1.6609
H       3.2496  -0.0836  -0.1945
H       -0.7988  -2.2806  -1.0476
H       -1.2084  -1.0169  -1.9635
