27

Co      -0.0640  0.0039  -0.0035
Cl      -1.0766  1.6002  -1.2077
Cl      1.1670  1.4476  1.3684
C       2.6853  -0.7155  -0.8253
C       2.1466  -1.9376  -0.1014
C       -2.5190  -1.3066  -0.4537
C       -2.3968  -1.1434  1.0459
N       1.5323  0.0742  -1.3519
N       1.0903  -1.5356  0.8839
N       -1.1261  -1.2801  -0.9946
N       -1.4374  -0.0433  1.3174
H       2.9463  -2.4728  0.3899
H       1.6918  -2.6187  -0.8059
H       -3.0656  -0.4917  -0.9001
H       -3.0070  -2.2328  -0.7141
H       1.7584  1.0535  -1.3763
H       1.2986  -0.1858  -2.2905
H       -1.8888  0.8562  1.2933
H       -1.0316  -0.1182  2.2311
H       -1.9971  -2.0458  1.4898
H       -3.3505  -0.9493  1.5092
H       0.6268  -2.3528  1.2339
H       1.5223  -1.0837  1.6715
H       3.3492  -1.0209  -1.6205
H       3.2354  -0.0837  -0.1514
H       -0.7234  -2.1988  -0.9427
H       -1.1485  -1.0098  -1.9579
