27

Co      0.0012  0.0361  0.0075
Cl      -1.0809  1.6089  -1.2151
Cl      1.1066  1.3617  1.3074
C       2.5804  -0.7118  -0.8250
C       2.0754  -1.8369  -0.1099
C       -2.4126  -1.2369  -0.4278
C       -2.3814  -1.1304  1.0589
N       1.5384  0.0455  -1.3284
N       1.0619  -1.5333  0.8509
N       -1.0504  -1.3381  -1.0119
N       -1.5169  -0.0382  1.4198
H       3.0601  -2.2429  0.2226
H       1.6099  -2.5841  -0.7303
H       -2.8257  -0.3902  -0.9623
H       -3.0793  -2.1036  -0.5293
H       1.8867  0.9826  -1.5287
H       1.4438  -0.3291  -2.2770
H       -2.0560  0.8139  1.3819
H       -1.2648  -0.1185  2.3916
H       -1.9245  -2.0079  1.5073
H       -3.4280  -1.1058  1.3954
H       0.6548  -2.4235  1.1282
H       1.6047  -1.3069  1.6938
H       3.3858  -1.1905  -1.4427
H       3.0485  -0.0302  -0.1373
H       -0.8507  -2.3319  -0.9820
H       -1.1721  -1.1601  -2.0048
