27

Co      0.0474  -0.0127  0.0331
Cl      -1.1031  1.6441  -1.2369
Cl      1.1002  1.3562  1.3024
C       2.5633  -0.6763  -0.7687
C       2.0390  -1.8525  -0.0790
C       -2.4696  -1.2925  -0.4588
C       -2.3853  -1.1358  1.0570
N       1.4517  0.0721  -1.3202
N       1.0842  -1.4682  0.8487
N       -1.0828  -1.2955  -1.0034
N       -1.4317  -0.0357  1.3339
H       2.9465  -2.4404  0.1862
H       1.4719  -2.4515  -0.7932
H       -2.8887  -0.4257  -0.9496
H       -3.1126  -2.1541  -0.6240
H       1.7608  1.0153  -1.5692
H       1.3709  -0.3649  -2.2532
H       -1.9488  0.8311  1.2721
H       -1.1805  -0.0839  2.3069
H       -1.9768  -2.0009  1.5740
H       -3.4002  -0.9931  1.4178
H       0.6304  -2.2946  1.1984
H       1.6587  -1.1955  1.6516
H       3.3060  -1.1813  -1.4278
H       3.0698  0.0376  -0.1434
H       -0.8602  -2.2783  -1.0295
H       -1.1816  -1.0467  -1.9735
