27

Co      -0.0074  0.0404  0.0457
Cl      -1.0979  1.6500  -1.2509
Cl      1.1222  1.3770  1.3192
C       2.5994  -0.7084  -0.7474
C       2.0833  -1.8772  -0.1071
C       -2.4707  -1.3444  -0.4642
C       -2.3817  -1.0987  1.0298
N       1.5006  0.0345  -1.3419
N       1.1537  -1.5294  0.8665
N       -1.1324  -1.3968  -1.1093
N       -1.4166  -0.0350  1.4210
H       2.9084  -2.4815  0.2687
H       1.5877  -2.4744  -0.8666
H       -3.0004  -0.5328  -0.9318
H       -3.0391  -2.2502  -0.6327
H       1.7564  0.9861  -1.5656
H       1.2133  -0.3954  -2.2129
H       -1.8365  0.8900  1.5078
H       -1.0060  -0.2496  2.3279
H       -2.0659  -2.0033  1.5398
H       -3.3794  -0.8723  1.3859
H       0.6473  -2.3452  1.1446
H       1.5879  -1.1550  1.6902
H       3.2631  -1.0933  -1.5115
H       3.1706  -0.0700  -0.1025
H       -0.7823  -2.3296  -1.1351
H       -1.2046  -1.0632  -2.0468
