27

Co      0.0082  0.0543  0.0069
Cl      -1.0493  1.5341  -1.1755
Cl      1.1159  1.3730  1.3070
C       2.5598  -0.7360  -0.8318
C       2.1001  -1.8286  -0.0955
C       -2.4964  -1.2712  -0.4209
C       -2.3732  -1.1126  1.0248
N       1.5306  0.0741  -1.2669
N       1.0816  -1.5097  0.8412
N       -1.1504  -1.3167  -1.0404
N       -1.4706  -0.0486  1.3290
H       3.0090  -2.1603  0.4231
H       1.7559  -2.6691  -0.7072
H       -3.0780  -0.5060  -0.9032
H       -2.9959  -2.2239  -0.5675
H       1.8401  1.0285  -1.3235
H       1.2120  -0.1719  -2.1839
H       -1.9208  0.8436  1.2574
H       -1.1338  -0.1139  2.2615
H       -1.9618  -2.0275  1.4316
H       -3.3480  -0.9757  1.4717
H       0.5958  -2.3620  1.0711
H       1.4712  -1.1508  1.6963
H       3.1884  -1.1161  -1.6289
H       3.1905  -0.1546  -0.1790
H       -0.8169  -2.2548  -1.0426
H       -1.2361  -1.0225  -1.9968
