27

Co      -0.0371  -0.0198  -0.0664
Cl      -1.0916  1.6046  -1.1977
Cl      1.2286  1.5419  1.4450
C       2.7960  -0.7273  -0.8398
C       2.2290  -2.0713  -0.0847
C       -2.5919  -1.3163  -0.4489
C       -2.5005  -1.2482  1.1165
N       1.5028  0.0915  -1.3506
N       1.0713  -1.5003  0.8316
N       -1.1559  -1.2691  -0.9595
N       -1.5698  -0.0297  1.3399
H       2.9202  -2.6859  0.5041
H       1.7560  -2.6995  -0.8317
H       -3.0336  -0.3731  -0.7826
H       -3.1397  -2.1475  -0.9111
H       1.6979  1.0866  -1.3473
H       1.2941  -0.1466  -2.3034
H       -2.0680  0.8326  1.1889
H       -1.1864  0.0245  2.2761
H       -2.0598  -2.1181  1.5845
H       -3.4639  -1.0737  1.5692
H       0.5183  -2.2313  1.2568
H       1.4975  -0.9780  1.5860
H       3.4251  -0.9236  -1.6968
H       3.3229  -0.0613  -0.1673
H       -0.7313  -2.1886  -0.8964
H       -1.1722  -1.0160  -1.9340
