27

Co      0.0000  -0.0121  0.0033
Cl      -1.0573  1.5779  -1.1956
Cl      1.1270  1.4074  1.3331
C       2.5517  -0.6977  -0.8096
C       2.0701  -1.8529  -0.0467
C       -2.4488  -1.2921  -0.4604
C       -2.3661  -1.1157  1.0557
N       1.4437  0.1055  -1.2986
N       1.0202  -1.4996  0.7981
N       -1.0774  -1.2983  -1.0278
N       -1.4089  -0.0185  1.3446
H       2.9979  -2.3197  0.3139
H       1.6064  -2.5569  -0.7186
H       -2.8811  -0.4424  -0.9656
H       -3.0914  -2.1639  -0.6011
H       1.7759  1.0506  -1.4461
H       1.3737  -0.2300  -2.2667
H       -1.9215  0.8519  1.3424
H       -1.1137  -0.1090  2.2970
H       -1.9659  -1.9738  1.5868
H       -3.3839  -0.9643  1.4040
H       0.5616  -2.3459  1.0888
H       1.5286  -1.2399  1.6460
H       3.2182  -1.2412  -1.5143
H       3.1353  0.0133  -0.2411
H       -0.8343  -2.2731  -1.0395
H       -1.1909  -1.0696  -2.0063
