27

Co      0.0482  0.0401  0.0236
Cl      -1.1010  1.6402  -1.2425
Cl      1.1107  1.3808  1.3163
C       2.6577  -0.6940  -0.8238
C       2.1020  -1.9163  -0.0992
C       -2.4774  -1.3023  -0.4392
C       -2.4503  -1.1656  1.0774
N       1.5197  0.0689  -1.3983
N       1.0291  -1.5321  0.8737
N       -1.0849  -1.3570  -1.0059
N       -1.5163  -0.0583  1.4376
H       2.8914  -2.4539  0.3922
H       1.6523  -2.5837  -0.8197
H       -2.9420  -0.4321  -0.8698
H       -3.0449  -2.1702  -0.7343
H       1.7490  1.0310  -1.5750
H       1.2144  -0.3173  -2.2794
H       -1.9647  0.8350  1.3652
H       -1.1814  -0.1343  2.3800
H       -2.0973  -2.0721  1.5517
H       -3.4534  -0.9845  1.4424
H       0.4341  -2.3361  1.0538
H       1.4233  -1.2420  1.7606
H       3.3533  -1.0138  -1.5865
H       3.1778  -0.0459  -0.1428
H       -0.7419  -2.2943  -1.0004
H       -1.1278  -1.0565  -1.9595
