27

Co      0.0580  0.0578  0.0322
Cl      -1.0747  1.5882  -1.2188
Cl      1.0753  1.3174  1.2704
C       2.5288  -0.6901  -0.8273
C       2.0420  -1.8157  -0.0864
C       -2.4463  -1.2978  -0.4330
C       -2.3963  -1.0909  1.0454
N       1.5027  0.0832  -1.3154
N       1.0625  -1.5249  0.9074
N       -1.0998  -1.3231  -1.0694
N       -1.4537  -0.0612  1.4004
H       3.0492  -2.2226  0.2034
H       1.5459  -2.5612  -0.6925
H       -2.9516  -0.5298  -1.0122
H       -3.0476  -2.2307  -0.4443
H       1.8643  1.0121  -1.5475
H       1.3613  -0.3114  -2.2442
H       -1.9515  0.8189  1.4100
H       -1.2024  -0.2011  2.3669
H       -2.0223  -1.9781  1.5436
H       -3.4348  -0.9670  1.3638
H       0.6209  -2.4095  1.1416
H       1.6146  -1.3425  1.7675
H       3.3153  -1.1891  -1.4581
H       3.0265  -0.0156  -0.1582
H       -0.9041  -2.3122  -1.1697
H       -1.2673  -1.0272  -2.0220
