27

Co      0.0463  0.0070  0.0218
Cl      -1.1139  1.6696  -1.2553
Cl      1.1236  1.4047  1.3310
C       2.6339  -0.6867  -0.8183
C       2.1001  -1.9200  -0.0955
C       -2.4774  -1.3041  -0.4429
C       -2.4283  -1.1509  1.0719
N       1.4922  0.0799  -1.3744
N       1.0383  -1.5487  0.8958
N       -1.0923  -1.3772  -1.0298
N       -1.4851  -0.0509  1.4155
H       2.9042  -2.4539  0.3775
H       1.6431  -2.5873  -0.8124
H       -2.9420  -0.4358  -0.8771
H       -3.0578  -2.1720  -0.7177
H       1.7122  1.0475  -1.5143
H       1.1923  -0.2750  -2.2666
H       -1.9225  0.8478  1.3340
H       -1.1484  -0.1178  2.3580
H       -2.0771  -2.0555  1.5480
H       -3.4240  -0.9587  1.4461
H       0.4635  -2.3563  1.0961
H       1.4399  -1.2383  1.7698
H       3.3202  -0.9936  -1.5920
H       3.1594  -0.0422  -0.1391
H       -0.7639  -2.3201  -1.0427
H       -1.1406  -1.0602  -1.9779
