27

Co      0.0080  -0.0568  -0.0525
Cl      -1.1163  1.6458  -1.2184
Cl      1.2317  1.5599  1.4518
C       2.7578  -0.7147  -0.8195
C       2.2011  -2.0464  -0.0933
C       -2.6173  -1.3150  -0.4370
C       -2.4876  -1.2453  1.1019
N       1.4933  0.1033  -1.3670
N       1.0777  -1.5161  0.8732
N       -1.1919  -1.3231  -0.9801
N       -1.5600  -0.0341  1.3093
H       2.8124  -2.6702  0.5976
H       1.7894  -2.6816  -0.8794
H       -3.1219  -0.3749  -0.6914
H       -3.0952  -2.1584  -0.9983
H       1.6047  1.1200  -1.2753
H       1.0781  -0.0797  -2.2717
H       -1.9681  0.8616  1.0509
H       -1.1368  0.0801  2.2294
H       -2.0851  -2.1516  1.5224
H       -3.4061  -1.0039  1.6209
H       0.4358  -2.2216  1.2054
H       1.3589  -0.9151  1.6615
H       3.2941  -0.8083  -1.7859
H       3.3615  -0.1256  -0.1404
H       -0.6921  -2.2106  -0.9382
H       -1.1508  -0.9639  -1.9205
