27

Co      -0.0092  -0.0261  -0.0176
Cl      -1.0782  1.6035  -1.2068
Cl      1.2001  1.5246  1.4174
C       2.7543  -0.7099  -0.8839
C       2.1757  -1.9899  -0.1159
C       -2.5613  -1.3208  -0.4397
C       -2.4721  -1.1830  1.0771
N       1.4972  0.0461  -1.3145
N       0.9358  -1.4373  0.7757
N       -1.1299  -1.2868  -0.9447
N       -1.4734  -0.0972  1.3001
H       2.8837  -2.4477  0.5934
H       1.8016  -2.7610  -0.7830
H       -3.0851  -0.4925  -0.8842
H       -3.0349  -2.2443  -0.7504
H       1.6704  1.0387  -1.3564
H       1.2030  -0.2162  -2.2357
H       -1.9083  0.7969  1.1383
H       -1.1472  -0.0631  2.2519
H       -2.1083  -2.0947  1.5266
H       -3.4142  -0.9434  1.5372
H       0.3529  -2.1987  1.0762
H       1.3355  -1.0380  1.6065
H       3.4352  -0.8748  -1.7115
H       3.2420  -0.0715  -0.1570
H       -0.7518  -2.2165  -0.9393
H       -1.1541  -0.9890  -1.9029
