27

Co      -0.0640  0.0058  -0.0001
Cl      -1.0940  1.6137  -1.2242
Cl      1.1869  1.4727  1.3820
C       2.8025  -0.7285  -0.8372
C       2.2247  -2.0395  -0.0876
C       -2.5973  -1.3661  -0.4611
C       -2.4610  -1.1788  1.0675
N       1.5467  0.1058  -1.3802
N       1.1189  -1.5322  0.9098
N       -1.1860  -1.2653  -1.0114
N       -1.4620  -0.0366  1.3317
H       2.8360  -2.6934  0.5707
H       1.7836  -2.6578  -0.8722
H       -3.2232  -0.5387  -0.7945
H       -2.9693  -2.3053  -0.9092
H       1.6707  1.1151  -1.2955
H       1.1268  -0.0842  -2.2830
H       -1.8397  0.8959  1.2811
H       -0.9522  -0.1024  2.2095
H       -2.1263  -2.0992  1.5261
H       -3.3710  -0.8611  1.5745
H       0.5237  -2.2652  1.2484
H       1.4201  -0.9318  1.6902
H       3.3135  -0.8755  -1.8134
H       3.4506  -0.1492  -0.1872
H       -0.6195  -2.1228  -1.0005
H       -1.1455  -0.8551  -1.9293
