27

Co      0.0031  0.0092  -0.0145
Cl      -1.0992  1.6086  -1.2089
Cl      1.2076  1.5024  1.4175
C       2.7173  -0.7373  -0.7888
C       2.1545  -1.9468  -0.1429
C       -2.6193  -1.3325  -0.4258
C       -2.4701  -1.1961  1.0518
N       1.5628  0.0231  -1.3492
N       1.1451  -1.4705  0.8512
N       -1.2409  -1.3449  -1.0279
N       -1.5440  -0.0709  1.3125
H       2.8285  -2.5246  0.4974
H       1.7512  -2.6138  -0.8968
H       -3.2295  -0.5031  -0.7644
H       -3.0433  -2.2583  -0.8131
H       1.7240  1.0164  -1.3834
H       1.1030  -0.2576  -2.2081
H       -1.9302  0.8450  1.1419
H       -1.1248  -0.0596  2.2261
H       -2.0944  -2.1297  1.4470
H       -3.3921  -0.9625  1.5654
H       0.5604  -2.2154  1.1755
H       1.4565  -0.8938  1.6320
H       3.3220  -0.8816  -1.6851
H       3.3020  -0.1835  -0.0648
H       -0.7650  -2.2380  -1.0293
H       -1.2410  -0.9573  -1.9540
