27

Co      -0.0025  0.0001  0.0083
Cl      -1.0943  1.6290  -1.2326
Cl      1.1686  1.4619  1.3723
C       2.7027  -0.7236  -0.7868
C       2.1692  -1.9901  -0.0679
C       -2.5729  -1.3761  -0.4682
C       -2.4693  -1.1811  1.0696
N       1.4539  0.0663  -1.3041
N       1.0760  -1.4637  0.7663
N       -1.1504  -1.2630  -0.9661
N       -1.4238  -0.0704  1.3055
H       2.8750  -2.6104  0.4841
H       1.7178  -2.6055  -0.8450
H       -3.0961  -0.5237  -0.8690
H       -3.0534  -2.2798  -0.8263
H       1.6719  1.0409  -1.4251
H       1.1944  -0.2714  -2.2113
H       -1.8567  0.8385  1.2764
H       -1.0255  -0.1434  2.2257
H       -2.1605  -2.0728  1.6121
H       -3.4200  -0.8577  1.4884
H       0.4882  -2.2007  1.1111
H       1.4834  -1.0205  1.5725
H       3.2668  -1.0351  -1.6560
H       3.3171  -0.0604  -0.1900
H       -0.7143  -2.1677  -0.9464
H       -1.1682  -0.9607  -1.9211
