27

Co      0.0004  -0.0058  0.0145
Cl      -1.0913  1.6324  -1.2291
Cl      1.1100  1.3621  1.3102
C       2.6235  -0.6675  -0.7786
C       2.0791  -1.9208  -0.1175
C       -2.4528  -1.2775  -0.4529
C       -2.3728  -1.1241  1.0566
N       1.4554  0.0619  -1.3252
N       1.0861  -1.4755  0.9026
N       -1.0636  -1.3009  -1.0186
N       -1.4317  -0.0268  1.3635
H       2.8622  -2.5196  0.3213
H       1.5625  -2.5395  -0.8474
H       -2.9543  -0.4305  -0.8841
H       -2.9886  -2.1690  -0.7228
H       1.6505  1.0367  -1.4601
H       1.1796  -0.2995  -2.2237
H       -1.8737  0.8756  1.2861
H       -1.0728  -0.0755  2.2948
H       -1.9920  -2.0293  1.5120
H       -3.3503  -0.9402  1.4741
H       0.5881  -2.2564  1.2827
H       1.5606  -1.0317  1.6685
H       3.3384  -0.9085  -1.5537
H       3.1048  -0.0347  -0.0560
H       -0.7099  -2.2334  -1.0110
H       -1.1016  -0.9882  -1.9662
