27

Co      0.0722  0.0592  0.0046
Cl      -1.0520  1.5518  -1.1864
Cl      1.1001  1.3647  1.3021
C       2.5652  -0.6870  -0.8470
C       2.0813  -1.8808  -0.1179
C       -2.4745  -1.2723  -0.4234
C       -2.3934  -1.1124  1.0451
N       1.4492  0.0600  -1.2528
N       0.9788  -1.4640  0.8455
N       -1.1115  -1.3750  -1.0544
N       -1.4687  -0.0685  1.3741
H       2.9361  -2.2118  0.4758
H       1.7278  -2.7275  -0.7192
H       -3.0090  -0.4821  -0.9143
H       -3.0138  -2.1994  -0.5755
H       1.7008  1.0186  -1.4099
H       1.0558  -0.2710  -2.1255
H       -1.9020  0.8293  1.2520
H       -1.1764  -0.1083  2.3263
H       -2.0220  -2.0392  1.4572
H       -3.3761  -0.9551  1.4610
H       0.3977  -2.2674  1.0447
H       1.3843  -1.1652  1.7200
H       3.2792  -0.8909  -1.6358
H       3.0639  -0.0939  -0.0955
H       -0.8236  -2.3282  -1.0885
H       -1.2070  -1.0591  -2.0039
