27

Co      0.0560  0.0616  0.0561
Cl      -1.1033  1.6239  -1.2404
Cl      1.1030  1.3423  1.2888
C       2.6932  -0.7066  -0.8254
C       2.1358  -1.9457  -0.1019
C       -2.5416  -1.3527  -0.4671
C       -2.4416  -1.1396  1.0608
N       1.4725  0.0372  -1.2417
N       1.0812  -1.3972  0.8115
N       -1.1622  -1.3440  -1.0758
N       -1.4641  -0.0520  1.3806
H       2.9716  -2.5136  0.2961
H       1.5732  -2.5873  -0.7754
H       -3.0047  -0.5260  -0.9917
H       -3.1703  -2.2465  -0.5602
H       1.7749  0.9779  -1.5648
H       1.2941  -0.4343  -2.1363
H       -1.9802  0.8199  1.3620
H       -1.2202  -0.1527  2.3595
H       -2.0546  -2.0110  1.5824
H       -3.4523  -0.9784  1.4198
H       0.5573  -2.1730  1.1814
H       1.6840  -1.1345  1.6030
H       3.4333  -1.0627  -1.5431
H       3.1715  -0.0107  -0.1472
H       -0.9453  -2.3303  -1.1874
H       -1.2995  -1.0223  -2.0204
