27

Co      0.0028  -0.0054  0.0160
Cl      -1.0974  1.6278  -1.2446
Cl      1.1221  1.3828  1.3151
C       2.6576  -0.6989  -0.8571
C       2.1316  -1.9309  -0.0609
C       -2.4738  -1.3454  -0.4491
C       -2.4420  -1.1062  1.0874
N       1.4967  0.1210  -1.3069
N       1.0778  -1.5093  0.9168
N       -1.1088  -1.2630  -1.0966
N       -1.4553  -0.0311  1.4203
H       3.0366  -2.4547  0.2759
H       1.5712  -2.5981  -0.7070
H       -2.9871  -0.5549  -0.9892
H       -3.0485  -2.2727  -0.5424
H       1.8025  1.0754  -1.4152
H       1.4121  -0.1815  -2.2827
H       -1.9453  0.8554  1.4438
H       -1.1572  -0.1655  2.3775
H       -2.0984  -1.9671  1.6600
H       -3.4797  -0.9140  1.3763
H       0.6380  -2.3423  1.2794
H       1.6524  -1.2060  1.7078
H       3.3698  -1.1398  -1.5686
H       3.1854  -0.0031  -0.2263
H       -0.8561  -2.2361  -1.2871
H       -1.2839  -0.8685  -2.0161
