27

Co      0.0053  0.0184  0.0082
Cl      -1.0672  1.5596  -1.1867
Cl      1.1234  1.3694  1.3221
C       2.6147  -0.7096  -0.7616
C       2.0660  -1.8498  -0.1009
C       -2.5049  -1.2850  -0.4406
C       -2.3997  -1.1524  1.0517
N       1.5258  0.0587  -1.3454
N       1.1389  -1.4383  0.8371
N       -1.1380  -1.2707  -1.0240
N       -1.5002  -0.0179  1.3445
H       2.8672  -2.4485  0.3164
H       1.5721  -2.4671  -0.8442
H       -3.0323  -0.4394  -0.8399
H       -3.0306  -2.1783  -0.7211
H       1.7853  1.0194  -1.4857
H       1.2765  -0.3029  -2.2475
H       -1.9682  0.8671  1.2513
H       -1.1509  -0.0522  2.2775
H       -1.9820  -2.0430  1.5074
H       -3.3838  -1.0020  1.4764
H       0.6452  -2.2295  1.1980
H       1.5816  -0.9860  1.6136
H       3.2605  -1.1146  -1.5342
H       3.2066  -0.0803  -0.1241
H       -0.7730  -2.2009  -1.0380
H       -1.1961  -0.9466  -1.9693
