27

Co      -0.0502  -0.0237  -0.0318
Cl      -1.0689  1.5907  -1.2049
Cl      1.2054  1.5120  1.4231
C       2.7057  -0.7228  -0.8185
C       2.1413  -1.9398  -0.1164
C       -2.5124  -1.3359  -0.4334
C       -2.4680  -1.1513  1.0782
N       1.5302  0.0343  -1.3467
N       1.0523  -1.4605  0.8003
N       -1.1308  -1.2700  -1.0232
N       -1.4917  -0.0699  1.3748
H       2.8974  -2.4701  0.4505
H       1.7109  -2.6276  -0.8246
H       -3.0778  -0.5328  -0.8813
H       -2.9842  -2.2713  -0.7009
H       1.7421  1.0149  -1.4047
H       1.2979  -0.2571  -2.2764
H       -1.9160  0.8396  1.3296
H       -1.1034  -0.1476  2.2992
H       -2.1430  -2.0514  1.5838
H       -3.4532  -0.9091  1.4481
H       0.5523  -2.2448  1.1692
H       1.4729  -0.9858  1.5809
H       3.3884  -0.9974  -1.6045
H       3.2245  -0.0835  -0.1245
H       -0.7337  -2.1929  -1.0822
H       -1.2113  -0.9177  -1.9588
