27

Co      0.0728  0.0369  0.0007
Cl      -1.0984  1.6177  -1.2216
Cl      1.1456  1.4229  1.3491
C       2.6252  -0.7053  -0.8156
C       2.1307  -1.9465  -0.0903
C       -2.5466  -1.3255  -0.4433
C       -2.4358  -1.1581  1.0679
N       1.4612  0.0860  -1.2874
N       1.0842  -1.5096  0.8787
N       -1.1901  -1.4236  -1.1128
N       -1.5161  -0.0320  1.3972
H       2.9435  -2.4482  0.4068
H       1.6796  -2.6441  -0.7802
H       -3.0260  -0.4569  -0.8615
H       -3.1590  -2.1879  -0.6743
H       1.7145  1.0479  -1.4407
H       1.1179  -0.2560  -2.1689
H       -1.9706  0.8566  1.2967
H       -1.1892  -0.0829  2.3438
H       -2.0507  -2.0516  1.5320
H       -3.4260  -0.9905  1.4681
H       0.4906  -2.2843  1.1288
H       1.5015  -1.1565  1.7207
H       3.2714  -0.9644  -1.6382
H       3.1833  -0.0795  -0.1377
H       -0.8883  -2.3778  -1.1803
H       -1.2876  -1.0713  -2.0506
