27

Co      -0.0611  -0.0628  -0.0215
Cl      -1.1140  1.6537  -1.2193
Cl      1.2049  1.5050  1.4043
C       2.7784  -0.7253  -0.8673
C       2.2244  -2.0256  -0.1306
C       -2.5562  -1.2486  -0.4452
C       -2.3931  -1.1944  1.0703
N       1.5030  0.0522  -1.2397
N       1.0582  -1.4539  0.8300
N       -1.1303  -1.3009  -0.9559
N       -1.4991  -0.0225  1.2614
H       2.9509  -2.5253  0.5115
H       1.7911  -2.7618  -0.7967
H       -3.0166  -0.3526  -0.8340
H       -3.1050  -2.1147  -0.7932
H       1.6713  1.0580  -1.1809
H       1.2454  -0.1215  -2.1983
H       -1.9889  0.8386  1.0205
H       -1.1784  0.1079  2.2206
H       -1.8793  -2.0865  1.4343
H       -3.3215  -1.0929  1.6183
H       0.5842  -2.2169  1.3011
H       1.5237  -0.9160  1.5563
H       3.4376  -0.8424  -1.7293
H       3.2804  -0.1133  -0.1270
H       -0.7727  -2.2434  -0.8738
H       -1.1241  -1.0593  -1.9329
