27

Co      -0.0018  -0.0247  -0.0018
Cl      -1.1096  1.6608  -1.2479
Cl      1.1840  1.4882  1.3919
C       2.6587  -0.7171  -0.8155
C       2.1524  -1.9553  -0.0995
C       -2.5414  -1.3512  -0.4426
C       -2.4454  -1.1404  1.0605
N       1.4819  0.0610  -1.2927
N       1.0816  -1.5171  0.8535
N       -1.1593  -1.3267  -1.0390
N       -1.4403  -0.0769  1.3332
H       2.9504  -2.4602  0.4250
H       1.7176  -2.6574  -0.7949
H       -3.0977  -0.5495  -0.9025
H       -3.0371  -2.2855  -0.6744
H       1.7049  1.0387  -1.3519
H       1.2052  -0.2153  -2.2133
H       -1.8537  0.8384  1.2777
H       -1.0697  -0.1510  2.2643
H       -2.1269  -2.0464  1.5586
H       -3.4109  -0.8724  1.4642
H       0.5643  -2.3094  1.1775
H       1.5058  -1.0891  1.6582
H       3.3073  -0.9791  -1.6349
H       3.2116  -0.0896  -0.1383
H       -0.7920  -2.2577  -1.0956
H       -1.2315  -0.9742  -1.9754
