27

Co      0.0051  0.0603  0.0179
Cl      -1.0605  1.5775  -1.2050
Cl      1.0896  1.3418  1.2804
C       2.5376  -0.7244  -0.8139
C       2.0919  -1.8381  -0.1014
C       -2.4356  -1.2619  -0.4238
C       -2.3627  -1.0991  1.0265
N       1.5023  0.0577  -1.2706
N       1.0659  -1.5420  0.8384
N       -1.0773  -1.3237  -1.0082
N       -1.4391  -0.0620  1.3671
H       3.0056  -2.1679  0.4081
H       1.7584  -2.6713  -0.7264
H       -2.9914  -0.4906  -0.9227
H       -2.9410  -2.2070  -0.5829
H       1.7999  1.0091  -1.3701
H       1.1775  -0.2281  -2.1759
H       -1.8744  0.8421  1.3436
H       -1.0859  -0.1741  2.2922
H       -1.9949  -2.0245  1.4514
H       -3.3497  -0.9367  1.4339
H       0.5729  -2.4005  1.0413
H       1.4510  -1.2146  1.7131
H       3.1925  -1.0805  -1.5966
H       3.1330  -0.1358  -0.1434
H       -0.7346  -2.2558  -0.9560
H       -1.1432  -1.0748  -1.9783
