27

Co      0.0640  -0.0160  0.0069
Cl      -1.0691  1.5897  -1.2035
Cl      1.1172  1.3991  1.3253
C       2.5277  -0.6973  -0.7826
C       2.0538  -1.8412  -0.0638
C       -2.4573  -1.2840  -0.4376
C       -2.3850  -1.1275  1.0612
N       1.4279  0.0917  -1.2831
N       1.0222  -1.4625  0.7788
N       -1.1013  -1.3540  -1.0585
N       -1.4594  -0.0206  1.3749
H       2.8772  -2.3016  0.4513
H       1.6732  -2.5669  -0.7713
H       -2.9330  -0.4186  -0.8476
H       -3.0486  -2.1487  -0.7000
H       1.6879  1.0505  -1.4056
H       1.1215  -0.2322  -2.1825
H       -1.8930  0.8752  1.2550
H       -1.1408  -0.0529  2.3184
H       -2.0308  -2.0190  1.5575
H       -3.3846  -0.9300  1.4278
H       0.4326  -2.2530  0.9853
H       1.3831  -1.1224  1.6590
H       3.1009  -1.1024  -1.6076
H       3.1777  -0.0668  -0.1937
H       -0.7876  -2.2985  -1.1069
H       -1.1833  -1.0139  -2.0011
