27

Co      0.0276  0.0671  -0.0097
Cl      -1.0601  1.5560  -1.1975
Cl      1.1323  1.3980  1.3286
C       2.6463  -0.7213  -0.8634
C       2.1620  -1.9578  -0.0543
C       -2.5040  -1.3440  -0.4518
C       -2.4522  -1.1337  1.0859
N       1.4637  0.1085  -1.2573
N       1.0436  -1.5006  0.8338
N       -1.1472  -1.3422  -1.1162
N       -1.4985  -0.0276  1.4415
H       3.0685  -2.3919  0.3749
H       1.6873  -2.6996  -0.6777
H       -2.9652  -0.5134  -0.9733
H       -3.1488  -2.2283  -0.5494
H       1.8111  1.0487  -1.4408
H       1.3202  -0.2304  -2.2040
H       -2.0191  0.8413  1.4793
H       -1.2011  -0.1728  2.3973
H       -2.0768  -1.9907  1.6351
H       -3.4942  -0.9850  1.3856
H       0.5252  -2.3111  1.1289
H       1.5750  -1.2502  1.6726
H       3.3305  -1.1243  -1.6073
H       3.1892  -0.0255  -0.2365
H       -0.9103  -2.3215  -1.2310
H       -1.3295  -1.0343  -2.0675
