27

Co      -0.0106  -0.0720  0.0044
Cl      -1.1204  1.6608  -1.2466
Cl      1.1917  1.4964  1.3925
C       2.7848  -0.7120  -0.8512
C       2.2078  -2.0355  -0.0739
C       -2.5952  -1.3611  -0.4610
C       -2.4747  -1.1847  1.0927
N       1.4703  0.0997  -1.2837
N       1.0496  -1.4271  0.8245
N       -1.1645  -1.2364  -0.9909
N       -1.4494  -0.0467  1.2844
H       2.8704  -2.6638  0.5338
H       1.7149  -2.6661  -0.8125
H       -3.1279  -0.5058  -0.8494
H       -3.0645  -2.2702  -0.8299
H       1.6317  1.1008  -1.2668
H       1.2186  -0.1233  -2.2297
H       -1.8841  0.8515  1.1294
H       -1.0970  -0.0074  2.2299
H       -2.1201  -2.0671  1.6103
H       -3.4132  -0.8908  1.5454
H       0.4839  -2.1476  1.2489
H       1.4930  -0.9202  1.5804
H       3.3510  -0.9308  -1.7545
H       3.3758  -0.0633  -0.2181
H       -0.7540  -2.1546  -1.0799
H       -1.1961  -0.8296  -1.9121
