27

Co      0.0276  0.0660  -0.0135
Cl      -1.0654  1.5571  -1.1814
Cl      1.1286  1.3798  1.3256
C       2.5672  -0.7350  -0.7996
C       2.1014  -1.8544  -0.1228
C       -2.4818  -1.2493  -0.4146
C       -2.3844  -1.1376  1.0458
N       1.5256  0.0425  -1.2641
N       1.1305  -1.5033  0.8475
N       -1.1573  -1.4027  -1.0994
N       -1.5614  -0.0193  1.4106
H       3.0042  -2.2372  0.3562
H       1.7145  -2.6409  -0.7571
H       -2.9824  -0.4113  -0.8559
H       -3.0898  -2.1286  -0.5856
H       1.8346  0.9920  -1.4007
H       1.1969  -0.2739  -2.1567
H       -2.0405  0.8543  1.3083
H       -1.2421  -0.0701  2.3547
H       -1.9298  -2.0403  1.4368
H       -3.3938  -1.0877  1.4537
H       0.6366  -2.3334  1.1201
H       1.5484  -1.1207  1.6720
H       3.2508  -1.0525  -1.5706
H       3.1314  -0.1491  -0.0951
H       -0.8707  -2.3624  -1.1015
H       -1.2692  -1.1213  -2.0594
