27

Co      0.0000  -0.0152  0.0034
Cl      -1.0663  1.5719  -1.1926
Cl      1.1330  1.4074  1.3301
C       2.6320  -0.7001  -0.8484
C       2.1187  -1.9046  -0.0702
C       -2.4965  -1.2830  -0.4466
C       -2.3763  -1.1277  1.0583
N       1.4804  0.1231  -1.2973
N       1.0326  -1.4851  0.8670
N       -1.1229  -1.3014  -1.0502
N       -1.4497  -0.0064  1.3356
H       2.9212  -2.3772  0.4679
H       1.6955  -2.6413  -0.7419
H       -3.0194  -0.4483  -0.8712
H       -3.0307  -2.1848  -0.6978
H       1.7117  1.1009  -1.2961
H       1.1968  -0.0984  -2.2351
H       -1.9002  0.8837  1.2199
H       -1.1040  -0.0182  2.2710
H       -1.9648  -2.0189  1.5088
H       -3.3449  -0.9563  1.5021
H       0.5036  -2.2840  1.1562
H       1.4353  -1.0791  1.6931
H       3.2239  -1.0271  -1.6932
H       3.2522  -0.0813  -0.2194
H       -0.7751  -2.2367  -1.0957
H       -1.1835  -0.9483  -1.9882
