27

Co      0.0439  -0.0131  0.0301
Cl      -1.0894  1.6271  -1.2300
Cl      1.0969  1.3704  1.2957
C       2.6000  -0.6787  -0.8383
C       2.0890  -1.8945  -0.0703
C       -2.4611  -1.2795  -0.4475
C       -2.3795  -1.1259  1.0600
N       1.4521  0.1165  -1.3187
N       0.9914  -1.5076  0.8701
N       -1.0694  -1.3241  -1.0103
N       -1.4261  -0.0316  1.3561
H       2.8924  -2.3691  0.4568
H       1.6726  -2.6221  -0.7572
H       -2.9484  -0.4308  -0.8828
H       -3.0091  -2.1679  -0.7171
H       1.6695  1.0893  -1.3858
H       1.1408  -0.1663  -2.2310
H       -1.8597  0.8666  1.2356
H       -1.1032  -0.0528  2.2997
H       -2.0116  -2.0296  1.5246
H       -3.3544  -0.9232  1.4760
H       0.4141  -2.3108  1.0735
H       1.3779  -1.1880  1.7491
H       3.2163  -1.0052  -1.6628
H       3.1928  -0.0487  -0.2015
H       -0.7359  -2.2611  -1.0267
H       -1.1064  -0.9947  -1.9559
