27

Co      -0.0556  -0.0464  -0.0406
Cl      -1.0955  1.6442  -1.2177
Cl      1.2355  1.5637  1.4585
C       2.6979  -0.7341  -0.7874
C       2.1595  -1.9551  -0.1443
C       -2.5295  -1.2906  -0.4269
C       -2.4275  -1.1815  1.0602
N       1.5311  0.0126  -1.3487
N       1.0834  -1.5142  0.8044
N       -1.1471  -1.3708  -1.0032
N       -1.5155  -0.0555  1.3446
H       2.8364  -2.4791  0.5485
H       1.8232  -2.6600  -0.8995
H       -3.0741  -0.4223  -0.7634
H       -3.0031  -2.1784  -0.8498
H       1.6650  1.0167  -1.3161
H       1.1137  -0.2185  -2.2374
H       -1.8930  0.8636  1.1931
H       -1.0654  -0.0518  2.2476
H       -2.0577  -2.1125  1.4601
H       -3.3632  -0.9613  1.5399
H       0.5248  -2.2787  1.1170
H       1.3561  -0.9274  1.6039
H       3.3025  -0.8622  -1.6824
H       3.2660  -0.1687  -0.0641
H       -0.6685  -2.2641  -0.9194
H       -1.1223  -1.0619  -1.9556
