27

Co      -0.0188  -0.0179  0.0069
Cl      -1.1233  1.6814  -1.2513
Cl      1.1942  1.4975  1.4056
C       2.6855  -0.7089  -0.8002
C       2.1393  -1.9521  -0.1221
C       -2.5755  -1.3389  -0.4533
C       -2.4323  -1.1678  1.0425
N       1.5228  0.0413  -1.3621
N       1.1110  -1.5466  0.8957
N       -1.1710  -1.3323  -0.9811
N       -1.4386  -0.0866  1.2807
H       2.9332  -2.5346  0.3342
H       1.6522  -2.5882  -0.8522
H       -3.1067  -0.5131  -0.9013
H       -3.0774  -2.2584  -0.7169
H       1.7330  1.0214  -1.4529
H       1.2771  -0.2811  -2.2754
H       -1.8759  0.8174  1.2138
H       -1.0637  -0.1337  2.2114
H       -2.0561  -2.0787  1.4884
H       -3.3715  -0.9380  1.5193
H       0.6292  -2.3553  1.2385
H       1.5611  -1.1165  1.6842
H       3.3986  -0.9782  -1.5670
H       3.1817  -0.0672  -0.0906
H       -0.7946  -2.2628  -0.9352
H       -1.1843  -1.0632  -1.9452
