27

Co      -0.0013  0.0307  0.0129
Cl      -1.0784  1.6065  -1.2127
Cl      1.1041  1.3592  1.3025
C       2.6508  -0.6924  -0.8086
C       2.1089  -1.9241  -0.1072
C       -2.4528  -1.2547  -0.4492
C       -2.3844  -1.1563  1.0621
N       1.4865  0.0614  -1.3386
N       1.0419  -1.4940  0.8456
N       -1.0493  -1.3156  -0.9702
N       -1.4769  -0.0272  1.3821
H       2.8879  -2.4567  0.4060
H       1.6661  -2.6023  -0.8233
H       -2.9054  -0.3709  -0.8627
H       -3.0177  -2.1147  -0.7673
H       1.7048  1.0307  -1.4753
H       1.1981  -0.2893  -2.2366
H       -1.9474  0.8557  1.2929
H       -1.1269  -0.0606  2.3169
H       -1.9667  -2.0598  1.4912
H       -3.3657  -1.0184  1.4914
H       0.4992  -2.2852  1.1355
H       1.4637  -1.1158  1.6733
H       3.3330  -0.9672  -1.5971
H       3.1686  -0.0558  -0.1157
H       -0.6878  -2.2461  -0.8743
H       -1.0573  -1.0860  -1.9478
