27

Co      0.0106  0.0618  0.0024
Cl      -1.0427  1.5425  -1.1810
Cl      1.1124  1.3754  1.3149
C       2.5499  -0.7092  -0.7914
C       2.0752  -1.8542  -0.0593
C       -2.4594  -1.2981  -0.4512
C       -2.3758  -1.1217  1.0451
N       1.4862  0.1068  -1.3570
N       1.0688  -1.5585  0.8504
N       -1.1137  -1.3648  -1.0744
N       -1.4585  -0.0105  1.4132
H       2.9380  -2.3312  0.3838
H       1.6739  -2.5586  -0.7719
H       -2.9556  -0.4514  -0.8834
H       -3.0441  -2.1748  -0.6795
H       1.7813  1.0557  -1.4888
H       1.2021  -0.2294  -2.2585
H       -1.9121  0.8879  1.4430
H       -1.0595  -0.1616  2.3208
H       -2.0052  -2.0147  1.5278
H       -3.3787  -0.9502  1.4205
H       0.5177  -2.3887  1.0257
H       1.4283  -1.2383  1.7416
H       3.1496  -1.1560  -1.5848
H       3.1936  -0.0711  -0.2036
H       -0.7575  -2.2939  -1.0456
H       -1.1826  -1.0893  -2.0365
