27

Co      -0.0088  -0.0287  -0.0005
Cl      -1.1212  1.6520  -1.2372
Cl      1.1891  1.4793  1.3915
C       2.8057  -0.7193  -0.8561
C       2.1962  -2.0120  -0.1452
C       -2.5956  -1.3153  -0.4340
C       -2.4866  -1.2033  1.0813
N       1.5382  0.0209  -1.2945
N       1.0613  -1.4037  0.8294
N       -1.1606  -1.2503  -0.9431
N       -1.5214  -0.0876  1.2860
H       2.8907  -2.5781  0.4768
H       1.7165  -2.6952  -0.8344
H       -3.1341  -0.4808  -0.8550
H       -3.0528  -2.2405  -0.7635
H       1.7053  1.0165  -1.3524
H       1.2577  -0.2613  -2.2123
H       -1.9777  0.7948  1.0725
H       -1.2180  -0.0065  2.2518
H       -2.0755  -2.1111  1.5058
H       -3.4256  -1.0052  1.5692
H       0.5393  -2.1471  1.2747
H       1.5448  -0.9065  1.5639
H       3.5197  -0.8462  -1.6740
H       3.2625  -0.0969  -0.0896
H       -0.7826  -2.1832  -0.9687
H       -1.1862  -0.9149  -1.8869
