27

Co      -0.0233  -0.0280  0.0105
Cl      -1.1010  1.6399  -1.2392
Cl      1.1753  1.4773  1.3857
C       2.7838  -0.6956  -0.8325
C       2.1605  -1.9979  -0.0950
C       -2.5584  -1.3550  -0.4546
C       -2.4784  -1.1849  1.0814
N       1.5390  0.0934  -1.4493
N       1.0321  -1.5048  0.8876
N       -1.1310  -1.2673  -0.9717
N       -1.4665  -0.0591  1.3541
H       2.7416  -2.6795  0.5744
H       1.7194  -2.5908  -0.9058
H       -3.1480  -0.5062  -0.7844
H       -2.9409  -2.2761  -0.9424
H       1.6270  1.1040  -1.4204
H       1.1200  -0.1634  -2.3330
H       -1.8250  0.8773  1.2470
H       -0.9989  -0.0917  2.2492
H       -2.1827  -2.1120  1.5596
H       -3.4012  -0.8449  1.5478
H       0.3849  -2.2358  1.1468
H       1.3092  -0.9787  1.7172
H       3.3421  -0.8653  -1.7601
H       3.3837  -0.0931  -0.1695
H       -0.5872  -2.1317  -0.9780
H       -1.0767  -0.8428  -1.8851
