27

Co      0.0067  0.0291  0.0245
Cl      -1.0705  1.5871  -1.2120
Cl      1.1427  1.4174  1.3342
C       2.6577  -0.7206  -0.8608
C       2.1651  -1.9498  -0.0659
C       -2.5208  -1.3541  -0.4724
C       -2.4003  -1.1048  1.0540
N       1.4369  0.0817  -1.1962
N       1.0263  -1.4451  0.7830
N       -1.1642  -1.3671  -1.1242
N       -1.4100  -0.0274  1.3692
H       3.0359  -2.3929  0.4091
H       1.6985  -2.6963  -0.6935
H       -2.9971  -0.5463  -1.0150
H       -3.1620  -2.2581  -0.5207
H       1.7532  1.0297  -1.3811
H       1.2749  -0.2572  -2.1370
H       -1.9106  0.8536  1.4010
H       -1.1203  -0.1613  2.3275
H       -2.0234  -1.9674  1.5914
H       -3.4067  -0.9239  1.4096
H       0.5179  -2.2446  1.1140
H       1.5704  -1.1752  1.6066
H       3.3125  -1.1024  -1.6351
H       3.2185  -0.0313  -0.2413
H       -0.9414  -2.3508  -1.2396
H       -1.3216  -1.0489  -2.0715
