27

Co      -0.0439  0.0058  -0.0262
Cl      -1.0737  1.5763  -1.1977
Cl      1.2071  1.5014  1.4117
C       2.7896  -0.7195  -0.8447
C       2.2171  -2.0531  -0.0774
C       -2.6022  -1.3796  -0.4706
C       -2.4768  -1.1804  1.0864
N       1.4899  0.0988  -1.3220
N       1.0808  -1.4665  0.8511
N       -1.2001  -1.2799  -1.0580
N       -1.4760  -0.0285  1.3443
H       2.9016  -2.6895  0.4955
H       1.7133  -2.6691  -0.8186
H       -3.1438  -0.5293  -0.8673
H       -3.0996  -2.2829  -0.7952
H       1.6858  1.0875  -1.3582
H       1.2394  -0.1690  -2.2542
H       -1.9307  0.8699  1.3165
H       -1.0562  -0.0959  2.2596
H       -2.1108  -2.0580  1.6019
H       -3.4317  -0.9207  1.5217
H       0.5240  -2.1938  1.2733
H       1.5260  -0.9561  1.6018
H       3.3912  -0.9314  -1.7227
H       3.3506  -0.0625  -0.1913
H       -0.7727  -2.1931  -1.1162
H       -1.2579  -0.9096  -1.9897
