27

Co      -0.0527  -0.0369  -0.0269
Cl      -1.0581  1.5688  -1.1830
Cl      1.1890  1.4845  1.4015
C       2.6890  -0.7114  -0.8111
C       2.1267  -1.9280  -0.1186
C       -2.5132  -1.2942  -0.4414
C       -2.4158  -1.1537  1.0629
N       1.4970  0.0366  -1.3046
N       1.0397  -1.4125  0.7781
N       -1.1148  -1.2444  -0.9797
N       -1.4602  -0.0506  1.3016
H       2.8685  -2.4572  0.4682
H       1.6993  -2.6246  -0.8242
H       -3.0569  -0.4696  -0.8664
H       -2.9903  -2.2158  -0.7379
H       1.6960  1.0224  -1.3481
H       1.2601  -0.2409  -2.2375
H       -1.9045  0.8447  1.1867
H       -1.0958  -0.0485  2.2341
H       -2.0261  -2.0528  1.5193
H       -3.3733  -0.9489  1.5088
H       0.5508  -2.1822  1.1980
H       1.4761  -0.9046  1.5328
H       3.3563  -0.9645  -1.6171
H       3.2133  -0.0797  -0.1151
H       -0.7227  -2.1682  -0.9737
H       -1.1565  -0.9413  -1.9334
