27

Co      -0.0556  -0.0616  -0.0371
Cl      -1.0735  1.6042  -1.1948
Cl      1.2113  1.5318  1.4281
C       2.6686  -0.7191  -0.8375
C       2.1479  -1.9337  -0.0960
C       -2.4985  -1.2750  -0.4426
C       -2.3882  -1.1541  1.0672
N       1.4950  0.0753  -1.3095
N       1.0237  -1.5009  0.8069
N       -1.1201  -1.3364  -1.0282
N       -1.4773  -0.0166  1.3325
H       2.9321  -2.4016  0.4891
H       1.7600  -2.6727  -0.7830
H       -2.9760  -0.4026  -0.8524
H       -3.0697  -2.1456  -0.7346
H       1.7062  1.0642  -1.2763
H       1.2640  -0.1290  -2.2663
H       -1.9330  0.8678  1.2071
H       -1.1107  -0.0078  2.2660
H       -1.9604  -2.0405  1.5083
H       -3.3569  -1.0026  1.5090
H       0.5306  -2.3029  1.1427
H       1.4146  -1.0403  1.6124
H       3.2946  -1.0073  -1.6618
H       3.2404  -0.0862  -0.1796
H       -0.7668  -2.2766  -1.0050
H       -1.1649  -1.0562  -1.9911
