27

Co      -0.0722  -0.0567  -0.0075
Cl      -1.1021  1.6575  -1.2443
Cl      1.1980  1.5071  1.4082
C       2.6993  -0.7200  -0.8282
C       2.1516  -1.9389  -0.1048
C       -2.5076  -1.3332  -0.4412
C       -2.4347  -1.1350  1.0628
N       1.5413  0.0615  -1.3583
N       1.0769  -1.5336  0.8674
N       -1.1150  -1.2575  -0.9960
N       -1.4330  -0.0707  1.3310
H       2.9399  -2.4741  0.4067
H       1.7040  -2.6200  -0.8119
H       -3.0846  -0.5458  -0.9065
H       -2.9576  -2.2865  -0.6986
H       1.7447  1.0499  -1.3358
H       1.3356  -0.1663  -2.3150
H       -1.8462  0.8468  1.2992
H       -1.0297  -0.1512  2.2498
H       -2.1065  -2.0397  1.5588
H       -3.3993  -0.8737  1.4683
H       0.6267  -2.3546  1.2274
H       1.5016  -1.0622  1.6513
H       3.3638  -1.0302  -1.6190
H       3.2471  -0.0848  -0.1576
H       -0.7069  -2.1755  -1.0269
H       -1.1617  -0.9167  -1.9349
