27

Co      0.0763  0.0394  0.0012
Cl      -1.0894  1.6202  -1.2281
Cl      1.1326  1.4019  1.3451
C       2.5963  -0.6623  -0.7928
C       2.0772  -1.9456  -0.0951
C       -2.5076  -1.3556  -0.4629
C       -2.4419  -1.1286  1.0740
N       1.4065  0.0666  -1.2992
N       1.0605  -1.4776  0.8911
N       -1.1430  -1.3885  -1.1178
N       -1.4554  -0.0540  1.4126
H       2.9673  -2.5171  0.2175
H       1.4932  -2.5596  -0.7797
H       -2.9454  -0.5099  -0.9873
H       -3.1777  -2.2253  -0.5525
H       1.7035  1.0073  -1.6246
H       1.2577  -0.4228  -2.1976
H       -1.9546  0.8288  1.4235
H       -1.1807  -0.1850  2.3785
H       -2.0944  -1.9983  1.6229
H       -3.4733  -0.9490  1.3808
H       0.5444  -2.2655  1.2386
H       1.6579  -1.2223  1.6885
H       3.4111  -0.9898  -1.4566
H       2.9949  0.0556  -0.0746
H       -0.9446  -2.3815  -1.2359
H       -1.3120  -1.0767  -2.0657
