27

Co      0.0067  0.0237  0.0196
Cl      -1.0734  1.6034  -1.2214
Cl      1.0955  1.3447  1.2881
C       2.5102  -0.6995  -0.7839
C       2.0621  -1.8348  -0.1117
C       -2.4356  -1.2847  -0.4274
C       -2.3511  -1.0669  1.0210
N       1.4712  0.0582  -1.2572
N       1.1100  -1.5235  0.8954
N       -1.0917  -1.3090  -1.0566
N       -1.3939  -0.0617  1.3486
H       2.9800  -2.2309  0.3234
H       1.6548  -2.6086  -0.7505
H       -3.0404  -0.5502  -0.9440
H       -2.9119  -2.2613  -0.5384
H       1.7456  1.0151  -1.3549
H       1.1590  -0.2383  -2.1630
H       -1.8006  0.8620  1.3369
H       -1.0318  -0.1890  2.2701
H       -2.0202  -1.9940  1.4722
H       -3.3342  -0.8585  1.4166
H       0.6617  -2.3718  1.1885
H       1.5480  -1.1305  1.7083
H       3.1979  -1.0218  -1.5531
H       3.0691  -0.1146  -0.0838
H       -0.7567  -2.2431  -1.0927
H       -1.1876  -0.9770  -1.9966
