27

Co      -0.0082  -0.0538  -0.0074
Cl      -1.1275  1.6898  -1.2555
Cl      1.1985  1.5057  1.4141
C       2.6924  -0.7161  -0.7738
C       2.1318  -1.9409  -0.1493
C       -2.5332  -1.3081  -0.4218
C       -2.4502  -1.1742  1.0649
N       1.5323  0.0134  -1.3565
N       1.1132  -1.4897  0.8515
N       -1.1456  -1.3406  -1.0027
N       -1.5109  -0.0727  1.3476
H       2.8021  -2.5279  0.4825
H       1.7298  -2.5923  -0.9193
H       -3.1091  -0.4638  -0.7680
H       -2.9695  -2.2200  -0.8351
H       1.6533  1.0156  -1.3672
H       1.0972  -0.2609  -2.2273
H       -1.8690  0.8564  1.1673
H       -1.0945  -0.0609  2.2644
H       -2.1200  -2.1122  1.4884
H       -3.3897  -0.9147  1.5229
H       0.5457  -2.2445  1.1753
H       1.4212  -0.9138  1.6369
H       3.3183  -0.8468  -1.6541
H       3.2451  -0.1547  -0.0382
H       -0.6773  -2.2351  -1.0019
H       -1.1336  -0.9499  -1.9263
