27

Co      0.0439  0.0025  0.0262
Cl      -1.1114  1.6671  -1.2529
Cl      1.1211  1.4023  1.3261
C       2.5589  -0.7156  -0.7973
C       2.0719  -1.8336  -0.1262
C       -2.4667  -1.2773  -0.4128
C       -2.4109  -1.1299  1.0400
N       1.5180  0.0206  -1.3083
N       1.0613  -1.5234  0.8313
N       -1.0927  -1.3442  -0.9778
N       -1.4699  -0.1012  1.3495
H       2.9567  -2.2255  0.3672
H       1.7040  -2.6134  -0.7833
H       -2.9987  -0.4845  -0.9007
H       -2.9796  -2.2093  -0.6089
H       1.7808  0.9790  -1.4446
H       1.2067  -0.3129  -2.2009
H       -1.8890  0.8034  1.2346
H       -1.1687  -0.1474  2.3020
H       -2.0666  -2.0596  1.4754
H       -3.3960  -0.9423  1.4355
H       0.5541  -2.3734  1.0332
H       1.4581  -1.2073  1.7045
H       3.2672  -1.0589  -1.5388
H       3.0982  -0.1129  -0.0954
H       -0.7783  -2.2902  -0.9654
H       -1.1515  -1.0648  -1.9381
