27

Co      0.0478  -0.0158  0.0522
Cl      -1.1121  1.6423  -1.2380
Cl      1.1062  1.3517  1.2952
C       2.6692  -0.6877  -0.8057
C       2.0973  -1.9046  -0.1179
C       -2.5023  -1.2868  -0.4522
C       -2.3804  -1.1313  1.0575
N       1.4773  0.0544  -1.2651
N       1.0849  -1.3821  0.8476
N       -1.1379  -1.3618  -1.0929
N       -1.4788  -0.0014  1.3699
H       2.8366  -2.5038  0.3839
H       1.5811  -2.5384  -0.8348
H       -2.9906  -0.4243  -0.8628
H       -3.0913  -2.1590  -0.6889
H       1.6733  1.0278  -1.4253
H       1.1421  -0.3118  -2.1437
H       -1.9297  0.8868  1.1981
H       -1.1938  0.0115  2.3332
H       -1.9619  -2.0246  1.5023
H       -3.3591  -0.9865  1.4874
H       0.5286  -2.1343  1.2063
H       1.5565  -0.9641  1.6267
H       3.3171  -0.9464  -1.6288
H       3.2199  -0.0712  -0.1181
H       -0.8466  -2.3187  -1.2034
H       -1.2072  -0.9461  -2.0071
