27

Co      0.0482  0.0249  0.0270
Cl      -1.0789  1.6001  -1.2196
Cl      1.0865  1.3489  1.2859
C       2.6239  -0.6836  -0.8512
C       2.0859  -1.8859  -0.0690
C       -2.4464  -1.2777  -0.4414
C       -2.4064  -1.1382  1.0753
N       1.5017  0.1226  -1.3818
N       0.9920  -1.5278  0.8897
N       -1.0669  -1.3407  -1.0355
N       -1.4917  -0.0193  1.4346
H       2.8918  -2.3765  0.4372
H       1.6572  -2.5963  -0.7621
H       -2.9165  -0.4124  -0.8681
H       -3.0207  -2.1464  -0.7189
H       1.7357  1.0875  -1.4808
H       1.1924  -0.1914  -2.2856
H       -1.9412  0.8709  1.3430
H       -1.1632  -0.0767  2.3758
H       -2.0318  -2.0363  1.5455
H       -3.4108  -0.9759  1.4478
H       0.3945  -2.3421  1.0386
H       1.3638  -1.2506  1.7963
H       3.2592  -1.0499  -1.6475
H       3.2112  -0.0450  -0.2175
H       -0.7359  -2.2796  -1.0678
H       -1.1205  -1.0009  -1.9768
