27

Co      -0.0004  0.0064  -0.0204
Cl      -1.0681  1.5781  -1.1855
Cl      1.1844  1.4915  1.3971
C       2.7165  -0.6956  -0.8828
C       2.1640  -1.9873  -0.1040
C       -2.5580  -1.2960  -0.4533
C       -2.4170  -1.1742  1.0644
N       1.4828  0.0870  -1.3235
N       0.9682  -1.4925  0.8559
N       -1.1532  -1.3664  -1.0163
N       -1.4810  -0.0428  1.3208
H       2.9152  -2.4537  0.5276
H       1.7557  -2.7414  -0.7672
H       -3.0341  -0.4273  -0.8778
H       -3.1218  -2.1728  -0.7347
H       1.6768  1.0736  -1.3706
H       1.1734  -0.1762  -2.2401
H       -1.9479  0.8363  1.1772
H       -1.1430  -0.0209  2.2652
H       -1.9788  -2.0744  1.4711
H       -3.3630  -1.0202  1.5573
H       0.3922  -2.2687  1.1324
H       1.3752  -1.1148  1.6924
H       3.3974  -0.8699  -1.7087
H       3.2118  -0.0594  -0.1593
H       -0.8125  -2.3097  -0.9808
H       -1.1807  -1.0956  -1.9836
