27

Co      0.0025  0.0109  -0.0079
Cl      -1.0818  1.6204  -1.2210
Cl      1.1536  1.4418  1.3684
C       2.6359  -0.6871  -0.8073
C       2.0999  -1.9271  -0.1045
C       -2.4738  -1.3076  -0.4480
C       -2.4161  -1.1407  1.0673
N       1.4875  0.0686  -1.3770
N       1.0435  -1.5382  0.8836
N       -1.1007  -1.3724  -1.0548
N       -1.4757  -0.0407  1.4160
H       2.9001  -2.4680  0.3736
H       1.6421  -2.5886  -0.8241
H       -2.9559  -0.4502  -0.8865
H       -3.0494  -2.1829  -0.7045
H       1.7064  1.0381  -1.5086
H       1.2123  -0.2851  -2.2767
H       -1.9150  0.8620  1.3842
H       -1.0982  -0.1401  2.3412
H       -2.0603  -2.0418  1.5442
H       -3.4114  -0.9529  1.4422
H       0.5021  -2.3416  1.1427
H       1.4553  -1.1715  1.7228
H       3.3429  -0.9705  -1.5713
H       3.1349  -0.0388  -0.1090
H       -0.7551  -2.3106  -1.0547
H       -1.1608  -1.0707  -2.0072
