27

Co      0.0043  0.0328  -0.0032
Cl      -1.0606  1.5715  -1.1886
Cl      1.1269  1.3928  1.3370
C       2.5882  -0.7037  -0.7724
C       2.0591  -1.8489  -0.0910
C       -2.4512  -1.2640  -0.4441
C       -2.3851  -1.1554  1.0585
N       1.5184  0.0684  -1.3982
N       1.0777  -1.5221  0.8348
N       -1.0909  -1.3605  -1.0336
N       -1.5155  -0.0062  1.4185
H       2.8850  -2.3989  0.3370
H       1.6180  -2.4935  -0.8373
H       -2.8944  -0.3658  -0.8396
H       -3.0672  -2.1002  -0.7404
H       1.7842  1.0236  -1.5586
H       1.2665  -0.3113  -2.2952
H       -1.9909  0.8742  1.3689
H       -1.1479  -0.0850  2.3435
H       -1.9665  -2.0442  1.5121
H       -3.3938  -1.0425  1.4429
H       0.5445  -2.3420  1.0644
H       1.4616  -1.1673  1.6931
H       3.2468  -1.1326  -1.5224
H       3.1681  -0.0544  -0.1444
H       -0.7471  -2.2986  -0.9700
H       -1.1346  -1.1149  -2.0056
