27

Co      -0.0080  0.0503  0.0560
Cl      -1.0695  1.5721  -1.2097
Cl      1.0886  1.3187  1.2662
C       2.6789  -0.7010  -0.8571
C       2.1316  -1.9179  -0.0728
C       -2.5021  -1.3271  -0.4785
C       -2.3743  -1.1005  1.0441
N       1.4885  0.0957  -1.2633
N       1.0648  -1.4391  0.8604
N       -1.1295  -1.2903  -1.0792
N       -1.4025  -0.0110  1.3564
H       2.9975  -2.4543  0.3080
H       1.5794  -2.5899  -0.7242
H       -2.9999  -0.5301  -1.0172
H       -3.0982  -2.2470  -0.5457
H       1.7951  1.0435  -1.4566
H       1.3518  -0.2700  -2.2041
H       -1.9217  0.8643  1.3908
H       -1.1113  -0.1376  2.3110
H       -1.9560  -1.9664  1.5510
H       -3.3728  -0.9543  1.4376
H       0.6013  -2.2538  1.2288
H       1.6520  -1.1562  1.6530
H       3.3703  -1.1288  -1.5924
H       3.2214  -0.0114  -0.2285
H       -0.8816  -2.2629  -1.1692
H       -1.2499  -0.9725  -2.0248
