27

Co      -0.0106  -0.0656  0.0010
Cl      -1.1114  1.6668  -1.2496
Cl      1.1857  1.4964  1.3955
C       2.6798  -0.7175  -0.8166
C       2.1446  -1.9412  -0.1087
C       -2.5308  -1.3343  -0.4344
C       -2.4532  -1.1492  1.0676
N       1.4852  0.0395  -1.2809
N       1.0464  -1.4507  0.7928
N       -1.1248  -1.2582  -0.9730
N       -1.4355  -0.0924  1.2958
H       2.9022  -2.4487  0.4741
H       1.7273  -2.6520  -0.8080
H       -3.0958  -0.5368  -0.8866
H       -2.9809  -2.2819  -0.7124
H       1.6817  1.0261  -1.3154
H       1.2264  -0.2220  -2.2117
H       -1.8419  0.8212  1.1720
H       -1.0934  -0.1014  2.2399
H       -2.1396  -2.0584  1.5668
H       -3.4093  -0.8623  1.4803
H       0.5334  -2.2282  1.1574
H       1.4716  -0.9901  1.5806
H       3.3228  -0.9757  -1.6405
H       3.2306  -0.0906  -0.1387
H       -0.7424  -2.1839  -1.0290
H       -1.1770  -0.9010  -1.9086
