27

Co      0.0088  0.0316  -0.0024
Cl      -1.0556  1.5719  -1.1939
Cl      1.1252  1.3993  1.3296
C       2.5854  -0.6742  -0.8490
C       2.1010  -1.9248  -0.0520
C       -2.4681  -1.3090  -0.4743
C       -2.3641  -1.1070  1.0573
N       1.4260  0.1356  -1.3104
N       1.0091  -1.5544  0.9051
N       -1.1033  -1.3697  -1.0967
N       -1.4079  -0.0060  1.3849
H       3.0317  -2.3948  0.2994
H       1.5937  -2.6287  -0.6970
H       -2.8917  -0.4580  -0.9988
H       -3.1477  -2.1733  -0.5660
H       1.7412  1.0834  -1.4710
H       1.3120  -0.2061  -2.2654
H       -1.9275  0.8662  1.4279
H       -1.0928  -0.1384  2.3301
H       -1.9503  -1.9677  1.5670
H       -3.3798  -0.9773  1.4197
H       0.5290  -2.3953  1.1810
H       1.5454  -1.3245  1.7525
H       3.3096  -1.0944  -1.5549
H       3.0902  0.0374  -0.2118
H       -0.8810  -2.3526  -1.1233
H       -1.2309  -1.1284  -2.0701
