27

Co      0.0463  -0.0142  0.0282
Cl      -1.1008  1.6236  -1.2294
Cl      1.1054  1.3728  1.2976
C       2.6346  -0.6927  -0.8894
C       2.1186  -1.9016  -0.0382
C       -2.4854  -1.2886  -0.4527
C       -2.3979  -1.1355  1.0819
N       1.4890  0.1607  -1.3112
N       1.0146  -1.5233  0.9072
N       -1.1102  -1.3248  -1.0698
N       -1.4799  0.0030  1.3824
H       3.0329  -2.3705  0.3331
H       1.6040  -2.6180  -0.6688
H       -2.9009  -0.4191  -0.9451
H       -3.1543  -2.1452  -0.5965
H       1.8014  1.1159  -1.3906
H       1.3787  -0.1074  -2.2894
H       -2.0105  0.8550  1.2820
H       -1.2447  -0.0168  2.3644
H       -1.9498  -1.9865  1.5843
H       -3.4207  -1.0391  1.4452
H       0.5203  -2.3684  1.1577
H       1.5403  -1.3092  1.7693
H       3.2973  -1.1836  -1.6223
H       3.2178  0.0043  -0.3026
H       -0.9103  -2.3175  -1.1853
H       -1.2403  -0.9975  -2.0163
