27

Co      -0.0474  0.0161  -0.0332
Cl      -1.0874  1.6003  -1.1976
Cl      1.2244  1.5292  1.4323
C       2.8056  -0.7381  -0.8191
C       2.2372  -2.0647  -0.1090
C       -2.6193  -1.3324  -0.4604
C       -2.4584  -1.2253  1.0739
N       1.5184  0.0659  -1.3479
N       1.1028  -1.5037  0.8332
N       -1.2090  -1.3604  -1.0141
N       -1.5310  -0.0215  1.3362
H       2.8277  -2.6984  0.6081
H       1.8347  -2.6979  -0.9008
H       -3.1400  -0.4151  -0.7421
H       -3.1056  -2.1881  -0.9607
H       1.6454  1.0728  -1.3302
H       1.0772  -0.1727  -2.2281
H       -1.9501  0.8810  1.2112
H       -1.0514  -0.0166  2.2301
H       -2.0457  -2.1357  1.4819
H       -3.3712  -0.9986  1.6098
H       0.4671  -2.2075  1.1789
H       1.3926  -0.9014  1.6156
H       3.3384  -0.8164  -1.7951
H       3.4105  -0.1514  -0.1345
H       -0.6855  -2.2386  -0.9111
H       -1.1560  -1.0502  -1.9682
