27

Co      -0.0658  -0.0200  -0.0058
Cl      -1.1205  1.6636  -1.2405
Cl      1.2100  1.5034  1.4104
C       2.7207  -0.7442  -0.7907
C       2.1863  -1.9656  -0.1371
C       -2.5890  -1.3240  -0.4356
C       -2.4231  -1.1681  1.0364
N       1.5739  0.0404  -1.3432
N       1.1951  -1.5535  0.9125
N       -1.2055  -1.3168  -1.0085
N       -1.4774  -0.0599  1.2864
H       2.8964  -2.5442  0.4496
H       1.7698  -2.6278  -0.8880
H       -3.2206  -0.5181  -0.7975
H       -2.9833  -2.2735  -0.8068
H       1.7285  1.0437  -1.2713
H       1.1622  -0.1551  -2.2428
H       -1.8545  0.8678  1.1820
H       -1.0042  -0.0886  2.1787
H       -2.0442  -2.1043  1.4259
H       -3.3304  -0.9212  1.5738
H       0.7014  -2.3369  1.2866
H       1.5224  -0.9251  1.6632
H       3.3091  -0.9006  -1.6977
H       3.3266  -0.1986  -0.0802
H       -0.6951  -2.1971  -0.9564
H       -1.1757  -0.9622  -1.9438
