27

Co      -0.0502  -0.0228  -0.0322
Cl      -1.0916  1.6053  -1.2053
Cl      1.2216  1.5188  1.4338
C       2.7483  -0.7449  -0.7894
C       2.1633  -1.9474  -0.1530
C       -2.5685  -1.3097  -0.4172
C       -2.4691  -1.1907  1.0687
N       1.5882  0.0090  -1.3590
N       1.1452  -1.4507  0.8264
N       -1.1918  -1.2976  -1.0188
N       -1.5658  -0.0549  1.3491
H       2.8180  -2.5360  0.5082
H       1.7619  -2.6079  -0.9113
H       -3.1800  -0.4776  -0.7490
H       -2.9783  -2.2350  -0.8324
H       1.7323  1.0107  -1.3382
H       1.1752  -0.2353  -2.2443
H       -1.9518  0.8607  1.1828
H       -1.1285  -0.0428  2.2577
H       -2.0934  -2.1181  1.4762
H       -3.4096  -0.9736  1.5452
H       0.6059  -2.1975  1.2157
H       1.4621  -0.8086  1.5717
H       3.3591  -0.8890  -1.6790
H       3.3229  -0.1909  -0.0598
H       -0.6944  -2.1849  -1.0286
H       -1.1979  -0.8998  -1.9402
