27

Co      -0.0188  -0.0391  0.0133
Cl      -1.1103  1.6354  -1.2254
Cl      1.1760  1.4656  1.3722
C       2.6817  -0.7194  -0.8486
C       2.1532  -1.9247  -0.0829
C       -2.5835  -1.3143  -0.4494
C       -2.3974  -1.1524  1.0434
N       1.5378  0.1130  -1.3217
N       1.1100  -1.5303  0.9208
N       -1.1980  -1.2980  -1.0256
N       -1.4470  -0.0327  1.2567
H       2.9667  -2.4511  0.3942
H       1.6812  -2.6189  -0.7676
H       -3.1382  -0.4965  -0.8786
H       -3.0832  -2.2406  -0.6955
H       1.7677  1.0989  -1.2747
H       1.2910  -0.0773  -2.2756
H       -1.9004  0.8564  1.1255
H       -1.0965  -0.0192  2.1951
H       -1.9606  -2.0459  1.4702
H       -3.3319  -0.9684  1.5546
H       0.6406  -2.3493  1.2593
H       1.5437  -1.0831  1.7109
H       3.2894  -1.0594  -1.6790
H       3.2990  -0.1023  -0.2133
H       -0.8366  -2.2330  -1.0596
H       -1.2340  -0.9506  -1.9656
