27

Co      0.0000  0.0000  0.0000
Cl      0.0002  -2.2379  -0.2142
Cl      -0.0001  2.2379  0.2143
N       -1.4000  0.1371  -1.2874
N       -1.4000  -0.1373  1.2873
N       1.4001  0.1371  -1.2873
N       1.4000  -0.1368  1.2873
C       -2.7415  0.3999  -0.6434
C       -2.7418  -0.3992  0.6434
C       2.7416  0.3999  -0.6435
C       2.7418  -0.3988  0.6436
H       -1.4452  0.8598  -2.0275
H       -2.7392  1.4633  -0.4591
H       -3.5476  0.1776  -1.3243
H       -3.5431  -0.1765  1.3289
H       -2.7399  -1.4626  0.4592
H       -1.6949  0.6697  1.8669
H       -1.4456  -0.8603  2.0270
H       1.6997  -0.6704  -1.8661
H       1.4454  0.8595  -2.0277
H       3.5476  0.1772  -1.3244
H       2.7393  1.4633  -0.4598
H       2.7402  -1.4622  0.4598
H       3.5475  -0.1756  1.3246
H       1.4456  -0.8595  2.0274
H       1.6992  0.6705  1.8665
H       -1.6997  -0.6701  -1.8665
