27

Co      0.0741  0.0488  0.0034
Cl      -0.0063  -2.3623  -0.2246
Cl      -0.0067  2.2950  0.2180
N       -1.4765  0.1440  -1.3723
N       -1.4765  -0.1542  1.3756
N       1.4094  0.1335  -1.3277
N       1.4094  -0.1433  1.3311
C       -2.7585  0.4062  -0.6411
C       -2.7588  -0.4055  0.6377
C       2.7030  0.4041  -0.6419
C       2.7032  -0.4030  0.6386
H       -1.3451  0.8563  -2.0637
H       -2.8005  1.4609  -0.4316
H       -3.6084  0.1445  -1.2545
H       -3.6083  -0.1502  1.2513
H       -2.8011  -1.4601  0.4215
H       -1.5546  0.6808  1.9301
H       -1.3085  -0.9242  1.9925
H       1.4393  -0.7485  -1.8062
H       1.2241  0.8536  -1.9971
H       3.5301  0.1389  -1.2773
H       2.7488  1.4589  -0.4349
H       2.7497  -1.4578  0.4248
H       3.5301  -0.1441  1.2740
H       1.1873  -0.9210  1.9260
H       1.4657  0.6846  1.8942
H       -1.5279  -0.7451  -1.8423
