27

Co      -0.0741  0.0000  0.0000
Cl      0.0068  -2.2612  -0.2181
Cl      0.0064  2.2612  0.2182
N       -1.5380  0.1209  -1.3860
N       -1.5380  -0.1210  1.3859
N       1.6052  0.1350  -1.4305
N       1.6051  -0.1347  1.4305
C       -2.7611  0.4374  -0.6178
C       -2.7614  -0.4367  0.6178
C       2.8168  0.4393  -0.6172
C       2.8170  -0.4382  0.6173
H       -1.1135  0.8546  -1.9715
H       -2.7988  1.4796  -0.3345
H       -3.6411  0.2054  -1.1970
H       -3.6456  -0.2043  1.1926
H       -2.7994  -1.4789  0.3345
H       -1.3715  0.8075  1.7944
H       -1.1139  -0.8551  1.9710
H       1.4520  -0.8050  -1.8330
H       1.2349  0.8605  -2.0349
H       3.7193  0.2065  -1.1745
H       2.8544  1.4779  -0.3362
H       2.8552  -1.4768  0.3362
H       3.7192  -0.2050  1.1747
H       1.2350  -0.8605  2.0345
H       1.4515  0.8051  1.8334
H       -1.3672  -0.8078  -1.7941
