27

Co      0.0000  0.0000  0.0000
Cl      0.0002  -2.2503  -0.2106
Cl      -0.0001  2.2503  0.2107
N       -1.5448  0.1185  -1.3153
N       -1.5448  -0.1186  1.3152
N       1.5448  0.1184  -1.3152
N       1.5447  -0.1181  1.3153
C       -2.7568  0.4055  -0.6143
C       -2.7571  -0.4048  0.6143
C       2.7569  0.4055  -0.6144
C       2.7571  -0.4044  0.6145
H       -1.2469  0.9555  -1.8259
H       -2.9208  1.4631  -0.4486
H       -3.5808  0.0306  -1.2081
H       -3.5808  -0.0295  1.2082
H       -2.9215  -1.4595  0.4486
H       -1.7330  0.6291  1.9975
H       -1.2474  -0.9561  1.8254
H       1.7332  -0.6297  -1.9968
H       1.2471  0.9552  -1.8306
H       3.5808  0.0258  -1.2082
H       2.9210  1.4603  -0.4492
H       2.9218  -1.4592  0.4493
H       3.5807  -0.0242  1.2084
H       1.2517  -0.9553  1.8302
H       1.7327  0.6298  1.9971
H       -1.7333  -0.6295  -1.9971
