27

Co      -0.0250  0.0000  0.0000
Cl      0.0002  -2.3410  -0.2176
Cl      -0.0001  2.3411  0.2177
N       -1.5375  0.1505  -1.3786
N       -1.4589  -0.1506  1.3049
N       1.4999  0.1640  -1.4051
N       1.5784  -0.1638  1.4787
C       -2.8203  0.4107  -0.6498
C       -2.7714  -0.3953  0.6302
C       2.7712  0.3914  -0.6394
C       2.8205  -0.4050  0.6591
H       -1.3588  0.8943  -2.0249
H       -2.8781  1.4654  -0.4499
H       -3.6699  0.1284  -1.2547
H       -3.5815  -0.1372  1.2942
H       -2.8296  -1.4500  0.4156
H       -1.4935  0.6918  1.8435
H       -1.2611  -0.9145  1.9213
H       1.5530  -0.6697  -1.9635
H       1.3428  0.9455  -2.0085
H       3.6270  0.1333  -1.2486
H       2.8154  1.4462  -0.4298
H       2.8653  -1.4598  0.4642
H       3.7153  -0.1219  1.2095
H       1.4411  -0.9260  2.1113
H       1.6506  0.6845  2.0080
H       -1.5920  -0.7069  -1.8874
