27

Co      0.0741  0.0427  0.0422
Cl      -0.0063  -2.3603  -0.2267
Cl      -0.0067  2.2971  0.2159
N       -1.4889  0.1457  -1.3425
N       -1.5020  -0.1600  1.3826
N       1.5003  0.1352  -1.3715
N       1.3563  -0.1491  1.2644
C       -2.7356  0.4042  -0.6857
C       -2.7359  -0.3977  0.6652
C       2.7292  0.4169  -0.7062
C       2.6312  -0.3806  0.6465
H       -1.4628  0.8632  -2.0499
H       -2.7607  1.4618  -0.4755
H       -3.4811  0.2154  -1.4635
H       -3.4958  -0.2480  1.4414
H       -2.7327  -1.4513  0.4303
H       -1.6351  0.6439  1.9787
H       -1.4876  -0.9482  2.0205
H       1.5853  -0.7382  -1.8548
H       1.4400  0.8408  -2.0864
H       3.4912  0.1999  -1.4498
H       2.7553  1.4746  -0.5132
H       2.6293  -1.4342  0.3993
H       3.3292  -0.2517  1.5064
H       1.2681  -0.9646  1.8509
H       1.4481  0.6330  1.8985
H       -1.5757  -0.7221  -1.8467
