27

Co      0.0000  0.0000  0.0000
Cl      0.0002  -2.2843  -0.2195
Cl      -0.0001  2.2843  0.2196
N       -1.3798  0.1387  -1.3269
N       -1.4583  -0.1388  1.4004
N       1.4584  0.1386  -1.4004
N       1.3798  -0.1383  1.3268
C       -2.6721  0.3995  -0.6299
C       -2.7214  -0.4135  0.6496
C       2.7212  0.4142  -0.6497
C       2.6723  -0.3984  0.6302
H       -1.1930  0.8918  -1.9570
H       -2.7039  1.4542  -0.4056
H       -3.4995  0.1639  -1.2735
H       -3.5878  -0.1529  1.2344
H       -2.7537  -1.4682  0.4400
H       -1.5272  0.7285  1.8980
H       -1.2916  -0.8727  2.0597
H       1.5274  -0.7291  -1.8973
H       1.2914  0.8718  -2.0604
H       3.5878  0.1537  -1.2344
H       2.7531  1.4690  -0.4406
H       2.7049  -1.4531  0.4062
H       3.4994  -0.1619  1.2738
H       1.1934  -0.8915  1.9569
H       1.4287  0.7145  1.8535
H       -1.4292  -0.7142  -1.8535
