27

Co      -0.0250  0.0061  -0.0389
Cl      0.0002  -2.3359  -0.2156
Cl      -0.0001  2.3318  0.2198
N       -1.4929  0.1526  -1.3028
N       -1.4798  -0.1486  1.2659
N       1.4554  0.1662  -1.3292
N       1.5993  -0.1618  1.4397
C       -2.8005  0.4077  -0.6363
C       -2.8007  -0.4127  0.6535
C       2.7515  0.3884  -0.6259
C       2.8498  -0.4225  0.6824
H       -1.1662  0.8839  -1.9293
H       -2.8414  1.4652  -0.4298
H       -3.7085  0.1178  -1.1603
H       -3.6938  -0.0897  1.1793
H       -2.8707  -1.4743  0.4649
H       -1.4272  0.7447  1.7281
H       -1.1053  -0.8673  1.8871
H       1.4212  -0.6960  -1.8480
H       1.1502  0.9351  -1.9129
H       3.6657  0.1227  -1.1542
H       2.7788  1.4460  -0.4097
H       2.9064  -1.4841  0.5136
H       3.8276  -0.0745  1.0947
H       1.2853  -0.8787  2.0770
H       1.5843  0.7374  1.8926
H       -1.4602  -0.7312  -1.7720
