27

Co      0.0741  -0.0061  0.0389
Cl      -0.0063  -2.2874  -0.2180
Cl      -0.0067  2.2916  0.2140
N       -1.5289  0.1591  -1.3388
N       -1.5420  -0.1633  1.3756
N       1.5403  0.1487  -1.3678
N       1.3963  -0.1525  1.2574
C       -2.7713  0.4090  -0.6938
C       -2.7715  -0.4026  0.6766
C       2.7648  0.4217  -0.7142
C       2.6668  -0.3855  0.6579
H       -1.3308  0.8925  -1.9850
H       -2.7889  1.4715  -0.4917
H       -3.6102  0.1891  -1.3344
H       -3.6249  -0.2150  1.3157
H       -2.7609  -1.4610  0.4565
H       -1.5792  0.6947  1.8877
H       -1.3927  -0.9102  2.0263
H       1.5563  -0.7251  -1.8514
H       1.3080  0.8701  -2.0214
H       3.6203  0.1737  -1.3208
H       2.7835  1.4843  -0.5293
H       2.6575  -1.4439  0.4255
H       3.4583  -0.2187  1.3807
H       1.1732  -0.9266  1.8567
H       1.3922  0.6839  1.8076
H       -1.5467  -0.7090  -1.8432
