27

Co      0.0741  0.0000  0.0000
Cl      -0.0063  -2.2379  -0.2142
Cl      -0.0067  2.2379  0.2143
N       -1.4614  0.1427  -1.3232
N       -1.4614  -0.1428  1.3231
N       1.3943  0.1322  -1.2786
N       1.3942  -0.1319  1.2786
C       -2.7648  0.4103  -0.6346
C       -2.7650  -0.4096  0.6346
C       2.7093  0.4082  -0.6355
C       2.7094  -0.4071  0.6355
H       -1.3061  0.8694  -1.9960
H       -2.8139  1.4650  -0.4184
H       -3.5933  0.1514  -1.2724
H       -3.5933  -0.1503  1.2726
H       -2.8145  -1.4642  0.4184
H       -1.5263  0.7286  1.8196
H       -1.3065  -0.8699  1.9955
H       1.4380  -0.7324  -1.7832
H       1.1851  0.8666  -1.9294
H       3.5150  0.1458  -1.2952
H       2.7622  1.4630  -0.4217
H       2.7631  -1.4619  0.4218
H       3.5150  -0.1442  1.2954
H       1.1852  -0.8667  1.9290
H       1.4375  0.7325  1.7836
H       -1.5266  -0.7290  -1.8192
