27

Co      0.0000  0.0488  0.0034
Cl      0.0002  -2.3586  -0.2171
Cl      -0.0001  2.2913  0.2105
N       -1.4242  0.1687  -1.3538
N       -1.4242  -0.1790  1.3571
N       1.4243  0.1649  -1.3537
N       1.4242  -0.1747  1.3571
C       -2.7345  0.3789  -0.6602
C       -2.7347  -0.3782  0.6568
C       2.7346  0.3789  -0.6603
C       2.7347  -0.3778  0.6570
H       -1.2695  0.9263  -1.9853
H       -2.8420  1.4374  -0.4966
H       -3.5505  0.0445  -1.2845
H       -3.5505  -0.0501  1.2813
H       -2.8427  -1.4367  0.4865
H       -1.4653  0.6261  1.9636
H       -1.2329  -0.9942  1.9141
H       1.4424  -0.6907  -1.8716
H       1.2697  0.9223  -1.9893
H       3.5505  0.0479  -1.2847
H       2.8384  1.4412  -0.4935
H       2.8392  -1.4401  0.4834
H       3.5504  -0.0530  1.2815
H       1.2329  -0.9897  1.9183
H       1.4688  0.6269  1.9595
H       -1.4387  -0.6905  -1.8758
