27

Co      0.0000  0.0000  0.0000
Cl      0.0002  -2.3286  -0.2213
Cl      -0.0001  2.3287  0.2214
N       -1.3488  0.1498  -1.3183
N       -1.4274  -0.1500  1.3918
N       1.4274  0.1498  -1.3918
N       1.3488  -0.1495  1.3182
C       -2.7603  0.3841  -0.6691
C       -2.8096  -0.3981  0.6887
C       2.8095  0.3988  -0.6888
C       2.7605  -0.3829  0.6693
H       -1.3013  0.8909  -2.0096
H       -2.5817  1.4495  -0.4390
H       -3.6858  0.2986  -1.2521
H       -3.7696  -0.2877  1.2175
H       -2.6315  -1.4663  0.4734
H       -1.5326  0.7069  1.9033
H       -1.3999  -0.8718  2.1122
H       1.5374  -0.7076  -1.9026
H       1.3997  0.8709  -2.1129
H       3.7741  0.2884  -1.2129
H       2.6309  1.4671  -0.4740
H       2.5827  -1.4512  0.4397
H       3.6857  -0.2966  1.2524
H       1.3016  -0.8906  2.0095
H       1.4387  0.6929  1.8588
H       -1.4392  -0.6926  -1.8588
