27

Co      0.0000  0.0000  0.0000
Cl      0.0002  -2.2733  -0.2121
Cl      -0.0001  2.2734  0.2122
N       -1.3424  0.1679  -1.2965
N       -1.3424  -0.1680  1.2964
N       1.3424  0.1641  -1.2964
N       1.3423  -0.1638  1.2964
C       -2.7226  0.3391  -0.6578
C       -2.7228  -0.3384  0.6578
C       2.7227  0.3391  -0.6579
C       2.7228  -0.3380  0.6580
H       -1.4846  0.9472  -1.9965
H       -2.6646  1.4063  -0.4822
H       -3.5530  0.1590  -1.3222
H       -3.5484  -0.1579  1.3268
H       -2.6652  -1.4055  0.4822
H       -1.4944  0.6318  1.9056
H       -1.4850  -0.9478  1.9961
H       1.5029  -0.6325  -1.9011
H       1.4848  0.9432  -2.0005
H       3.5530  0.1623  -1.3223
H       2.6609  1.4100  -0.4790
H       2.6617  -1.4089  0.4791
H       3.5529  -0.1608  1.3224
H       1.4849  -0.9432  2.0002
H       1.5024  0.6326  1.9015
H       -1.4992  -0.6322  -1.9053
