27

Co      0.0000  0.0488  0.0034
Cl      0.0002  -2.3231  -0.2193
Cl      -0.0001  2.2558  0.2126
N       -1.4552  0.1469  -1.3311
N       -1.4552  -0.1571  1.3344
N       1.4552  0.1468  -1.3311
N       1.4551  -0.1566  1.3345
C       -2.7709  0.4006  -0.6595
C       -2.7711  -0.3999  0.6562
C       2.7710  0.4006  -0.6597
C       2.7711  -0.3995  0.6564
H       -1.3709  0.8424  -2.0656
H       -2.7540  1.4689  -0.4935
H       -3.6918  0.1411  -1.1789
H       -3.6872  -0.1467  1.1802
H       -2.7547  -1.4682  0.4834
H       -1.6808  0.6408  1.9302
H       -1.3343  -0.9103  1.9945
H       1.6586  -0.7054  -1.8420
H       1.3710  0.8421  -2.0659
H       3.6917  0.1407  -1.1791
H       2.7541  1.4689  -0.4941
H       2.7550  -1.4678  0.4841
H       3.6917  -0.1459  1.1759
H       1.3342  -0.9095  1.9948
H       1.6850  0.6415  1.9299
H       -1.6586  -0.7052  -1.8424
