27

Co      -0.0741  0.0061  -0.0389
Cl      0.0068  -2.2915  -0.2139
Cl      0.0064  2.2875  0.2181
N       -1.4643  0.1397  -1.3561
N       -1.4512  -0.1357  1.3192
N       1.4529  0.1500  -1.3270
N       1.5969  -0.1456  1.4374
C       -2.7341  0.4058  -0.6134
C       -2.7343  -0.4109  0.6306
C       2.7406  0.3931  -0.5932
C       2.8389  -0.4271  0.6498
H       -1.2139  0.9196  -1.9363
H       -2.8405  1.4449  -0.3546
H       -3.4792  0.1463  -1.3600
H       -3.4689  -0.1182  1.3745
H       -2.8697  -1.4540  0.3898
H       -1.3263  0.7537  1.8002
H       -1.1530  -0.9030  1.8941
H       1.3452  -0.7246  -1.8351
H       1.2371  0.9414  -1.9003
H       3.4690  0.1610  -1.3768
H       2.8432  1.4322  -0.3182
H       2.9708  -1.4704  0.4221
H       3.6309  -0.1128  1.3172
H       1.3723  -0.8850  2.0644
H       1.5083  0.7660  1.8797
H       -1.3548  -0.7401  -1.8440
