27

Co      0.0250  -0.0061  0.0389
Cl      0.0002  -2.2430  -0.2162
Cl      -0.0001  2.2472  0.2123
N       -1.4366  0.1559  -1.3764
N       -1.4497  -0.1601  1.4132
N       1.4741  0.1422  -1.3499
N       1.3301  -0.1460  1.2394
C       -2.7497  0.3684  -0.6667
C       -2.7499  -0.3619  0.6495
C       2.7989  0.3876  -0.6773
C       2.7008  -0.3513  0.6210
H       -1.4251  0.8982  -2.0749
H       -2.6160  1.4387  -0.4688
H       -3.7377  0.2158  -1.1364
H       -3.7479  -0.2417  1.1222
H       -2.5881  -1.4282  0.4337
H       -1.5692  0.6743  1.9612
H       -1.4870  -0.9159  2.1162
H       1.5802  -0.7242  -1.8399
H       1.4416  0.8464  -2.0918
H       3.7805  0.2102  -1.1428
H       2.6789  1.4580  -0.4902
H       2.5529  -1.4176  0.3863
H       3.6185  -0.2552  1.2026
H       1.3067  -0.9029  1.9270
H       1.4161  0.6830  1.7961
H       -1.5412  -0.6885  -1.9167
