27

Co      -0.0741  0.0000  0.0000
Cl      0.0068  -2.2894  -0.2159
Cl      0.0064  2.2895  0.2160
N       -1.4397  0.1422  -1.3241
N       -1.4397  -0.1423  1.3240
N       1.5068  0.1525  -1.3686
N       1.5068  -0.1522  1.3686
C       -2.7386  0.4042  -0.6401
C       -2.7388  -0.4035  0.6401
C       2.7942  0.4061  -0.6395
C       2.7944  -0.4050  0.6396
H       -1.2375  0.8929  -1.9561
H       -2.7915  1.4589  -0.4310
H       -3.5622  0.1373  -1.2790
H       -3.5622  -0.1362  1.2792
H       -2.7921  -1.4582  0.4310
H       -1.4828  0.7106  1.8449
H       -1.2379  -0.8935  1.9557
H       1.5717  -0.7080  -1.8798
H       1.3589  0.8951  -2.0233
H       3.6404  0.1422  -1.2565
H       2.8433  1.4609  -0.4289
H       2.8441  -1.4598  0.4290
H       3.6403  -0.1406  1.2567
H       1.3590  -0.8951  2.0229
H       1.5712  0.7081  1.8802
H       -1.4831  -0.7109  -1.8446
