27

Co      0.0741  -0.0061  0.0389
Cl      -0.0063  -2.3157  -0.2158
Cl      -0.0067  2.3198  0.2118
N       -1.3651  0.1733  -1.3053
N       -1.3782  -0.1775  1.3420
N       1.3766  0.1591  -1.3343
N       1.2325  -0.1629  1.2238
C       -2.8211  0.3666  -0.6914
C       -2.8214  -0.3602  0.6742
C       2.8147  0.3793  -0.7118
C       2.7167  -0.3430  0.6555
H       -1.4821  0.9354  -2.0123
H       -2.7452  1.4330  -0.5120
H       -3.6244  0.2048  -1.4065
H       -3.6346  -0.2307  1.3924
H       -2.7172  -1.4253  0.4768
H       -1.5457  0.6249  1.9466
H       -1.5439  -0.9531  2.0536
H       1.5310  -0.6553  -1.9065
H       1.4593  0.9093  -2.0525
H       3.6345  0.1931  -1.3900
H       2.7389  1.4523  -0.5459
H       2.6129  -1.4119  0.4421
H       3.4725  -0.2382  1.4499
H       1.3244  -0.9658  1.8878
H       1.3669  0.6141  1.8627
H       -1.5177  -0.6392  -1.9021
