27

Co      0.0000  -0.0488  -0.0034
Cl      0.0002  -2.2203  -0.2147
Cl      -0.0001  2.2877  0.2215
N       -1.5501  0.1263  -1.3526
N       -1.5501  -0.1164  1.3491
N       1.5501  0.1300  -1.3525
N       1.5500  -0.1196  1.3491
C       -2.7937  0.4408  -0.6110
C       -2.7940  -0.4401  0.6143
C       2.7938  0.4407  -0.6111
C       2.7939  -0.4396  0.6145
H       -1.1269  0.8703  -1.9289
H       -2.8414  1.4830  -0.3233
H       -3.6587  0.2066  -1.2103
H       -3.6632  -0.1988  1.2093
H       -2.8421  -1.4823  0.3334
H       -1.3760  0.8522  1.6978
H       -1.1643  -0.8035  1.9991
H       1.3949  -0.7889  -1.7884
H       1.1271  0.8738  -1.9254
H       3.6586  0.2025  -1.2105
H       2.8453  1.4793  -0.3277
H       2.8461  -1.4782  0.3378
H       3.6586  -0.1942  1.2140
H       1.1642  -0.8065  1.9958
H       1.3674  0.8530  1.7012
H       -1.3987  -0.7886  -1.7850
