27

Co      0.0250  0.0000  0.0000
Cl      0.0002  -2.2451  -0.2142
Cl      -0.0001  2.2451  0.2143
N       -1.3757  0.1551  -1.3749
N       -1.4542  -0.1552  1.4485
N       1.4133  0.1414  -1.3484
N       1.3347  -0.1411  1.2747
C       -2.7618  0.3835  -0.6736
C       -2.8111  -0.3975  0.6932
C       2.8109  0.4027  -0.6843
C       2.7620  -0.3869  0.6647
H       -1.3504  0.9053  -2.0612
H       -2.5716  1.4489  -0.4425
H       -3.7150  0.3046  -1.2226
H       -3.7988  -0.2937  1.1880
H       -2.6213  -1.4658  0.4769
H       -1.5737  0.6970  1.9697
H       -1.4490  -0.8862  2.1638
H       1.5193  -0.7204  -1.8483
H       1.3668  0.8535  -2.0780
H       3.7578  0.2990  -1.2290
H       2.6344  1.4711  -0.4639
H       2.5862  -1.4552  0.4295
H       3.6694  -0.3072  1.2685
H       1.2688  -0.8732  1.9746
H       1.4206  0.7058  1.8045
H       -1.4803  -0.6827  -1.9252
