27

Co      -0.0250  0.0061  -0.0389
Cl      0.0002  -2.2523  -0.2085
Cl      -0.0001  2.2483  0.2127
N       -1.5218  0.1155  -1.3141
N       -1.5087  -0.1115  1.2772
N       1.4843  0.1291  -1.3406
N       1.6282  -0.1247  1.4510
C       -2.8019  0.4051  -0.6138
C       -2.8021  -0.4101  0.6310
C       2.7529  0.3858  -0.6034
C       2.8512  -0.4199  0.6599
H       -1.0670  0.9669  -1.7641
H       -2.8571  1.4490  -0.3544
H       -3.6423  0.1614  -1.2397
H       -3.6320  -0.1334  1.2541
H       -2.8864  -1.4581  0.3895
H       -1.3207  0.7293  1.8388
H       -1.0061  -0.9503  1.7219
H       1.3101  -0.6806  -1.9588
H       1.0510  1.0181  -1.7522
H       3.5994  0.1619  -1.2336
H       2.7945  1.4298  -0.3343
H       2.9221  -1.4680  0.4382
H       3.7613  -0.1137  1.1740
H       1.1905  -0.9617  1.9163
H       1.4732  0.7220  2.0033
H       -1.3491  -0.7157  -1.8827
