27

Co      0.0000  0.0488  0.0034
Cl      0.0002  -2.3623  -0.2246
Cl      -0.0001  2.2950  0.2180
N       -1.3870  0.1356  -1.3534
N       -1.3870  -0.1458  1.3567
N       1.3870  0.1356  -1.3533
N       1.3870  -0.1454  1.3567
C       -2.7719  0.4211  -0.6752
C       -2.7721  -0.4204  0.6718
C       2.7719  0.4211  -0.6753
C       2.7721  -0.4200  0.6720
H       -1.4280  0.8355  -2.1121
H       -2.7202  1.4817  -0.4808
H       -3.5768  0.2411  -1.3824
H       -3.5722  -0.2467  1.3837
H       -2.7209  -1.4838  0.4707
H       -1.6951  0.6304  1.9859
H       -1.3914  -0.9033  2.0409
H       1.6729  -0.6950  -1.8976
H       1.4281  0.8352  -2.1123
H       3.5767  0.2407  -1.3825
H       2.7203  1.4846  -0.4814
H       2.7211  -1.4835  0.4713
H       3.5767  -0.2459  1.3793
H       1.3913  -0.9026  2.0413
H       1.6993  0.6311  1.9855
H       -1.6729  -0.6947  -1.8980
