27

Co      0.0250  0.0000  0.0000
Cl      0.0002  -2.3215  -0.2213
Cl      -0.0001  2.3215  0.2214
N       -1.3478  0.1519  -1.3109
N       -1.4263  -0.1520  1.3845
N       1.3854  0.1382  -1.2843
N       1.3068  -0.1379  1.2107
C       -2.7651  0.3842  -0.6688
C       -2.8144  -0.3982  0.6884
C       2.8142  0.4034  -0.6795
C       2.7653  -0.3876  0.6599
H       -1.3135  0.8877  -2.0122
H       -2.5916  1.4496  -0.4411
H       -3.6870  0.2915  -1.2556
H       -3.7708  -0.2806  1.2210
H       -2.6414  -1.4665  0.4755
H       -1.5359  0.7099  1.8930
H       -1.4122  -0.8686  2.1148
H       1.4815  -0.7333  -1.7716
H       1.3300  0.8358  -2.0290
H       3.7298  0.2859  -1.2620
H       2.6545  1.4717  -0.4624
H       2.6062  -1.4559  0.4281
H       3.6414  -0.2941  1.3015
H       1.2319  -0.8556  1.9256
H       1.3828  0.7187  1.7278
H       -1.4425  -0.6955  -1.8485
