27

Co      0.0000  0.0061  -0.0389
Cl      0.0002  -2.3468  -0.2231
Cl      -0.0001  2.3428  0.2273
N       -1.5808  0.1279  -1.3896
N       -1.5677  -0.1239  1.3527
N       1.5023  0.1315  -1.3159
N       1.6462  -0.1271  1.4264
C       -2.7424  0.4337  -0.5962
C       -2.7426  -0.4387  0.6134
C       2.6934  0.4189  -0.5767
C       2.7917  -0.4530  0.6332
H       -1.3663  0.8471  -2.0569
H       -2.8699  1.4854  -0.3887
H       -3.6043  0.0981  -1.1647
H       -3.5895  -0.0700  1.1837
H       -2.8992  -1.4917  0.4239
H       -1.7543  0.7295  1.8614
H       -1.3053  -0.8305  2.0147
H       1.6853  -0.7036  -1.8644
H       1.2683  0.8702  -1.9503
H       3.5159  0.1038  -1.2041
H       2.8247  1.4641  -0.3587
H       2.9523  -1.5023  0.4627
H       3.6778  -0.0556  1.1446
H       1.4034  -0.8139  2.1144
H       1.8484  0.7450  1.9090
H       -1.7873  -0.7160  -1.9052
