27

Co      0.0741  0.0000  0.0000
Cl      -0.0063  -2.3286  -0.2213
Cl      -0.0067  2.3287  0.2214
N       -1.4765  0.1490  -1.3740
N       -1.4765  -0.1491  1.3739
N       1.4094  0.1386  -1.3294
N       1.4094  -0.1383  1.3294
C       -2.7585  0.4062  -0.6394
C       -2.7588  -0.4055  0.6394
C       2.7030  0.4041  -0.6402
C       2.7032  -0.4030  0.6403
H       -1.3266  0.8900  -2.0284
H       -2.8005  1.4609  -0.4265
H       -3.6084  0.1479  -1.2528
H       -3.6083  -0.1468  1.2529
H       -2.8011  -1.4601  0.4265
H       -1.5411  0.7128  1.8864
H       -1.3270  -0.8906  2.0279
H       1.4528  -0.7165  -1.8500
H       1.2056  0.8873  -1.9617
H       3.5301  0.1423  -1.2756
H       2.7488  1.4589  -0.4299
H       2.7497  -1.4578  0.4299
H       3.5301  -0.1407  1.2757
H       1.2058  -0.8873  1.9614
H       1.4523  0.7166  1.8504
H       -1.5414  -0.7131  -1.8860
