27

Co      0.0000  0.0000  0.0000
Cl      0.0002  -2.2612  -0.2181
Cl      -0.0001  2.2612  0.2182
N       -1.6199  0.1243  -1.4146
N       -1.5413  -0.1244  1.3409
N       1.5414  0.1279  -1.3409
N       1.6198  -0.1276  1.4146
C       -2.7684  0.4456  -0.6146
C       -2.7196  -0.4302  0.5950
C       2.7194  0.4308  -0.5951
C       2.7687  -0.4445  0.6148
H       -1.3928  0.8273  -2.0959
H       -2.9055  1.4994  -0.4202
H       -3.6476  0.0880  -1.1478
H       -3.5592  -0.0968  1.1872
H       -2.8570  -1.4811  0.3858
H       -1.7331  0.7167  1.8663
H       -1.2951  -0.8474  1.9923
H       1.7296  -0.7173  -1.8694
H       1.2948  0.8503  -1.9893
H       3.5592  0.0937  -1.1872
H       2.8602  1.4781  -0.3902
H       2.9102  -1.4917  0.4246
H       3.6475  -0.0823  1.1481
H       1.3932  -0.8308  2.0920
H       1.8272  0.7322  1.9139
H       -1.8315  -0.7318  -1.9102
