27

Co      0.0250  0.0488  0.0034
Cl      0.0002  -2.3107  -0.2229
Cl      -0.0001  2.2435  0.2163
N       -1.4180  0.1357  -1.3547
N       -1.4180  -0.1459  1.3579
N       1.3771  0.1220  -1.2544
N       1.3770  -0.1318  1.2578
C       -2.7014  0.4070  -0.6412
C       -2.7016  -0.4063  0.6378
C       2.7015  0.4115  -0.6322
C       2.7016  -0.4104  0.6289
H       -1.2729  0.8451  -2.0465
H       -2.7384  1.4617  -0.4299
H       -3.5449  0.1485  -1.2591
H       -3.5449  -0.1542  1.2559
H       -2.7391  -1.4610  0.4198
H       -1.4948  0.6921  1.9094
H       -1.2363  -0.9130  1.9753
H       1.4089  -0.7795  -1.7005
H       1.1911  0.8129  -1.9602
H       3.4993  0.1527  -1.3048
H       2.7522  1.4663  -0.4168
H       2.7530  -1.4652  0.4068
H       3.4993  -0.1578  1.3016
H       1.1543  -0.8803  1.8892
H       1.4353  0.7156  1.7884
H       -1.4681  -0.7565  -1.8215
