27

Co      0.0000  -0.0488  -0.0034
Cl      0.0002  -2.3073  -0.2142
Cl      -0.0001  2.3747  0.2211
N       -1.4901  0.1538  -1.4050
N       -1.4901  -0.1438  1.4015
N       1.4901  0.1537  -1.4049
N       1.4901  -0.1433  1.4016
C       -2.8186  0.4011  -0.5971
C       -2.8188  -0.4004  0.6005
C       2.8187  0.4010  -0.5972
C       2.8188  -0.3999  0.6007
H       -1.3293  0.9480  -1.9984
H       -2.9153  1.4501  -0.3888
H       -3.6713  0.0744  -1.1813
H       -3.6713  -0.0665  1.1848
H       -2.9160  -1.4493  0.3989
H       -1.5673  0.7255  1.9005
H       -1.3668  -0.8813  2.0686
H       1.5945  -0.6622  -1.9873
H       1.3295  0.9477  -1.9986
H       3.6713  0.0740  -1.1786
H       2.9183  1.4501  -0.3894
H       2.9191  -1.4490  0.3995
H       3.6713  -0.0657  1.1821
H       1.3667  -0.8805  2.0690
H       1.5671  0.7262  1.9001
H       -1.5945  -0.6619  -1.9877
