27

Co      0.0000  0.0488  0.0034
Cl      0.0002  -2.3107  -0.2229
Cl      -0.0001  2.2435  0.2163
N       -1.3708  0.1377  -1.2910
N       -1.3708  -0.1479  1.2943
N       1.3708  0.1376  -1.2910
N       1.3708  -0.1474  1.2943
C       -2.7189  0.3702  -0.6504
C       -2.7191  -0.3695  0.6470
C       2.7189  0.3701  -0.6506
C       2.7191  -0.3690  0.6473
H       -1.3726  0.8327  -2.0526
H       -2.5826  1.4384  -0.4429
H       -3.6687  0.2288  -1.1742
H       -3.6642  -0.2344  1.1755
H       -2.5832  -1.4377  0.4328
H       -1.4801  0.6803  1.8533
H       -1.3360  -0.9005  1.9814
H       1.4579  -0.7449  -1.7650
H       1.3728  0.8324  -2.0528
H       3.6687  0.2284  -1.1743
H       2.5827  1.4385  -0.4435
H       2.5835  -1.4374  0.4335
H       3.6686  -0.2335  1.1711
H       1.3359  -0.8998  1.9818
H       1.4843  0.6810  1.8529
H       -1.4579  -0.7446  -1.7654
