27

Co      0.0741  -0.0061  0.0389
Cl      -0.0063  -2.3266  -0.2233
Cl      -0.0067  2.3307  0.2193
N       -1.4986  0.1556  -1.3442
N       -1.5117  -0.1598  1.3809
N       1.5100  0.1451  -1.3732
N       1.3660  -0.1489  1.2627
C       -2.7356  0.4090  -0.6938
C       -2.7359  -0.4026  0.6766
C       2.7292  0.4217  -0.7142
C       2.6312  -0.3855  0.6579
H       -1.2988  0.8871  -1.9903
H       -2.7461  1.4715  -0.4899
H       -3.5781  0.1945  -1.3309
H       -3.5928  -0.2204  1.3122
H       -2.7182  -1.4610  0.4547
H       -1.5489  0.7001  1.8913
H       -1.3606  -0.9049  2.0316
H       1.5260  -0.7304  -1.8549
H       1.2760  0.8648  -2.0268
H       3.5882  0.1790  -1.3172
H       2.7407  1.4843  -0.5276
H       2.6148  -1.4439  0.4237
H       3.4262  -0.2241  1.3771
H       1.1411  -0.9213  1.8620
H       1.3619  0.6892  1.8111
H       -1.5164  -0.7143  -1.8468
