27

Co      0.0000  0.0000  0.0000
Cl      0.0002  -2.3286  -0.2213
Cl      -0.0001  2.3287  0.2214
N       -1.4037  0.1438  -1.3149
N       -1.4822  -0.1439  1.3885
N       1.4823  0.1437  -1.3885
N       1.4037  -0.1435  1.3149
C       -2.7062  0.3978  -0.6299
C       -2.7555  -0.4118  0.6496
C       2.7554  0.4125  -0.6497
C       2.7064  -0.3967  0.6302
H       -1.2169  0.8986  -1.9434
H       -2.7500  1.4525  -0.4107
H       -3.5251  0.1502  -1.2838
H       -3.6134  -0.1393  1.2446
H       -2.7998  -1.4665  0.4451
H       -1.5459  0.7217  1.8895
H       -1.3155  -0.8795  2.0460
H       1.5462  -0.7223  -1.8888
H       1.3153  0.8787  -2.0467
H       3.6134  0.1400  -1.2446
H       2.7992  1.4673  -0.4457
H       2.7510  -1.4514  0.4114
H       3.5250  -0.1482  1.2841
H       1.2173  -0.8984  1.9433
H       1.4475  0.7077  1.8450
H       -1.4480  -0.7073  -1.8450
