27

Co      0.0000  0.0000  0.0000
Cl      0.0002  -2.2966  -0.2159
Cl      -0.0001  2.2967  0.2160
N       -1.5709  0.1507  -1.4237
N       -1.4923  -0.1508  1.3500
N       1.4923  0.1506  -1.3500
N       1.5708  -0.1503  1.4237
C       -2.7366  0.4194  -0.6333
C       -2.6877  -0.4039  0.6137
C       2.6875  0.4046  -0.6138
C       2.7368  -0.4182  0.6335
H       -1.3458  0.8931  -2.0563
H       -2.9302  1.4769  -0.4821
H       -3.5968  -0.0040  -1.1630
H       -3.5084  -0.0047  1.2024
H       -2.8817  -1.4586  0.4477
H       -1.6578  0.6659  1.9224
H       -1.2480  -0.9133  1.9527
H       1.6581  -0.6665  -1.9216
H       1.2478  0.9124  -1.9534
H       3.5084  0.0054  -1.2024
H       2.8812  1.4594  -0.4483
H       2.9311  -1.4730  0.4827
H       3.5967  0.0060  1.1633
H       1.3461  -0.8929  2.0562
H       1.7557  0.6813  1.9662
H       -1.7563  -0.6809  -1.9662
