27

Co      0.0000  0.0000  0.0000
Cl      0.0002  -2.2379  -0.2142
Cl      -0.0001  2.2379  0.2143
N       -1.3885  0.1375  -1.2641
N       -1.4671  -0.1376  1.3376
N       1.4671  0.1374  -1.3377
N       1.3885  -0.1371  1.2641
C       -2.7125  0.4019  -0.6252
C       -2.7618  -0.4159  0.6448
C       2.7616  0.4166  -0.6449
C       2.7127  -0.4008  0.6254
H       -1.1964  0.8780  -1.9110
H       -2.7634  1.4566  -0.4026
H       -3.5100  0.1537  -1.3034
H       -3.5983  -0.1428  1.2643
H       -2.8132  -1.4706  0.4370
H       -1.5311  0.7375  1.8227
H       -1.2950  -0.8589  2.0136
H       1.5314  -0.7382  -1.8220
H       1.2948  0.8580  -2.0143
H       3.5983  0.1435  -1.2643
H       2.8126  1.4714  -0.4376
H       2.7644  -1.4555  0.4032
H       3.5099  -0.1518  1.3037
H       1.1967  -0.8777  1.9109
H       1.4327  0.7235  1.7782
H       -1.4332  -0.7232  -1.7782
