27

Co      0.0000  0.0000  0.0000
Cl      0.0002  -2.3215  -0.2213
Cl      -0.0001  2.3215  0.2214
N       -1.3822  0.1390  -1.2575
N       -1.4607  -0.1392  1.3310
N       1.4607  0.1390  -1.3311
N       1.3821  -0.1387  1.2575
C       -2.7110  0.4002  -0.6252
C       -2.7603  -0.4142  0.6448
C       2.7601  0.4149  -0.6449
C       2.7112  -0.3991  0.6254
H       -1.1882  0.8795  -1.9027
H       -2.7668  1.4549  -0.4059
H       -3.5035  0.1454  -1.3101
H       -3.5919  -0.1345  1.2709
H       -2.8165  -1.4689  0.4403
H       -1.5196  0.7360  1.8177
H       -1.2868  -0.8604  2.0053
H       1.5199  -0.7367  -1.8170
H       1.2866  0.8595  -2.0060
H       3.5919  0.1352  -1.2709
H       2.8160  1.4696  -0.4409
H       2.7677  -1.4538  0.4066
H       3.5035  -0.1435  1.3104
H       1.1886  -0.8792  1.9026
H       1.4212  0.7220  1.7732
H       -1.4217  -0.7217  -1.7732
