27

Co      0.0250  0.0000  0.0000
Cl      0.0002  -2.3177  -0.2138
Cl      -0.0001  2.3178  0.2139
N       -1.3561  0.1755  -1.2978
N       -1.4347  -0.1756  1.3713
N       1.3937  0.1580  -1.2712
N       1.3151  -0.1577  1.1976
C       -2.7192  0.3623  -0.6568
C       -2.7686  -0.3763  0.6765
C       2.7684  0.3816  -0.6675
C       2.7195  -0.3657  0.6479
H       -1.4139  0.9582  -1.9659
H       -2.7787  1.4295  -0.5158
H       -3.5010  0.0745  -1.3466
H       -3.5848  -0.0636  1.3119
H       -2.8284  -1.4435  0.5502
H       -1.7172  0.6080  1.9979
H       -1.5126  -0.9391  2.0686
H       1.6665  -0.6314  -1.8728
H       1.4304  0.9027  -1.9865
H       3.5438  0.0726  -1.3529
H       2.8378  1.4525  -0.5334
H       2.7895  -1.4367  0.4991
H       3.4554  -0.0808  1.3924
H       1.3323  -0.9224  1.8831
H       1.5678  0.6168  1.8290
H       -1.6238  -0.5937  -1.9534
