27

Co      0.0000  -0.0427  -0.0422
Cl      0.0002  -2.2258  -0.2052
Cl      -0.0001  2.2891  0.2161
N       -1.5398  0.1527  -1.4131
N       -1.5267  -0.1387  1.3728
N       1.4613  0.1527  -1.3394
N       1.6052  -0.1382  1.4465
C       -2.7705  0.4091  -0.5675
C       -2.7707  -0.4142  0.5880
C       2.7215  0.3944  -0.5480
C       2.8198  -0.4284  0.6079
H       -1.3381  0.9448  -2.0021
H       -3.0027  1.4589  -0.3983
H       -3.6149  -0.0477  -1.1064
H       -3.6001  0.0825  1.1288
H       -3.0320  -1.4652  0.4435
H       -1.7159  0.7125  1.8922
H       -1.3142  -0.8608  2.0305
H       1.6777  -0.6226  -1.9790
H       1.2401  0.9641  -1.8992
H       3.5265  -0.0382  -1.1430
H       2.9566  1.4414  -0.3645
H       3.0842  -1.4795  0.4786
H       3.6884  0.0932  1.0868
H       1.4123  -0.8404  2.1340
H       1.8138  0.7280  1.9360
H       -1.7759  -0.6350  -2.0236
