27

Co      0.0250  0.0427  0.0422
Cl      0.0002  -2.3211  -0.2213
Cl      -0.0001  2.2579  0.2106
N       -1.4872  0.1471  -1.3764
N       -1.5003  -0.1614  1.4165
N       1.5248  0.1334  -1.3498
N       1.3807  -0.1473  1.2427
C       -2.7664  0.4058  -0.6546
C       -2.7666  -0.3993  0.6340
C       2.8155  0.4250  -0.6652
C       2.7175  -0.3887  0.6055
H       -1.3269  0.8678  -2.0473
H       -2.8248  1.4625  -0.4591
H       -3.6167  0.1208  -1.2560
H       -3.6314  -0.1534  1.2340
H       -2.7969  -1.4520  0.4139
H       -1.5866  0.6587  1.9912
H       -1.3517  -0.9529  2.0179
H       1.5661  -0.7726  -1.7823
H       1.3433  0.8160  -2.0641
H       3.6595  0.1152  -1.2624
H       2.8877  1.4818  -0.4805
H       2.7617  -1.4414  0.3665
H       3.4975  -0.1669  1.3189
H       1.1714  -0.9398  1.8287
H       1.4289  0.6674  1.8260
H       -1.5271  -0.7369  -1.8591
