27

Co      0.0000  0.0488  0.0034
Cl      0.0002  -2.2716  -0.2176
Cl      -0.0001  2.2043  0.2109
N       -1.4000  0.1321  -1.2857
N       -1.4000  -0.1423  1.2889
N       1.4001  0.1320  -1.2856
N       1.4000  -0.1418  1.2890
C       -2.7415  0.3999  -0.6451
C       -2.7418  -0.3992  0.6417
C       2.7416  0.3999  -0.6452
C       2.7418  -0.3988  0.6419
H       -1.4637  0.8261  -2.0629
H       -2.7392  1.4633  -0.4642
H       -3.5476  0.1742  -1.3260
H       -3.5431  -0.1799  1.3273
H       -2.7399  -1.4626  0.4541
H       -1.7084  0.6378  1.9106
H       -1.4271  -0.8940  1.9917
H       1.6862  -0.7023  -1.8224
H       1.4639  0.8258  -2.0631
H       3.5476  0.1738  -1.3261
H       2.7393  1.4633  -0.4648
H       2.7402  -1.4622  0.4548
H       3.5475  -0.1790  1.3229
H       1.4270  -0.8932  1.9921
H       1.7127  0.6385  1.9103
H       -1.6863  -0.7021  -1.8228
