27

Co      0.0000  -0.0488  -0.0034
Cl      0.0002  -2.2275  -0.2147
Cl      -0.0001  2.2949  0.2215
N       -1.5438  0.1308  -1.3964
N       -1.5438  -0.1208  1.3929
N       1.5438  0.1345  -1.3963
N       1.5438  -0.1241  1.3930
C       -2.7935  0.4290  -0.6241
C       -2.7937  -0.4283  0.6275
C       2.7935  0.4290  -0.6243
C       2.7937  -0.4279  0.6277
H       -1.3553  0.8811  -2.0345
H       -2.7759  1.4800  -0.3675
H       -3.6737  0.2402  -1.2245
H       -3.6736  -0.2323  1.2280
H       -2.7766  -1.4792  0.3776
H       -1.6152  0.7775  1.8358
H       -1.3928  -0.8143  2.1047
H       1.6386  -0.7141  -1.9264
H       1.3555  0.8845  -2.0310
H       3.6736  0.2360  -1.2247
H       2.7798  1.4762  -0.3719
H       2.7806  -1.4751  0.3820
H       3.6736  -0.2277  1.2282
H       1.3927  -0.8173  2.1014
H       1.6112  0.7782  1.8392
H       -1.6424  -0.7139  -1.9230
