27

Co      0.0000  0.0488  0.0034
Cl      0.0002  -2.2750  -0.2101
Cl      -0.0001  2.2077  0.2034
N       -1.4083  0.2034  -1.3747
N       -1.4083  -0.2136  1.3780
N       1.4083  0.1996  -1.3747
N       1.4083  -0.2094  1.3780
C       -2.7582  0.3754  -0.7217
C       -2.7585  -0.3747  0.7183
C       2.7583  0.3754  -0.7218
C       2.7585  -0.3743  0.7185
H       -1.5093  0.8842  -2.1590
H       -2.7238  1.4319  -0.5025
H       -3.4897  0.2412  -1.5406
H       -3.4896  -0.2468  1.5374
H       -2.7245  -1.4340  0.4924
H       -1.3654  0.6722  1.8579
H       -1.4727  -0.9521  2.0879
H       1.3425  -0.7368  -1.7659
H       1.5095  0.8801  -2.1586
H       3.4896  0.2489  -1.5436
H       2.7173  1.4385  -0.4994
H       2.7182  -1.4374  0.4893
H       3.4896  -0.2541  1.5404
H       1.4682  -0.9475  2.0875
H       1.3689  0.6729  1.8538
H       -1.3387  -0.7365  -1.7700
