27

Co      0.0000  0.0000  0.0000
Cl      0.0002  -2.3448  -0.2251
Cl      -0.0001  2.3448  0.2252
N       -1.5656  0.1301  -1.3712
N       -1.5656  -0.1303  1.3711
N       1.5656  0.1338  -1.3712
N       1.5656  -0.1335  1.3712
C       -2.7554  0.4020  -0.6005
C       -2.7556  -0.4012  0.6005
C       2.7554  0.4019  -0.6006
C       2.7556  -0.4008  0.6007
H       -1.4220  0.8602  -2.0447
H       -2.7849  1.4557  -0.3674
H       -3.6531  0.1581  -1.1568
H       -3.6531  -0.1570  1.1570
H       -2.7855  -1.4522  0.3674
H       -1.6453  0.7356  1.8662
H       -1.4224  -0.8607  2.0442
H       1.6418  -0.7362  -1.8692
H       1.4222  0.8636  -2.0411
H       3.6531  0.1540  -1.1570
H       2.7887  1.4492  -0.3718
H       2.7896  -1.4481  0.3718
H       3.6530  -0.1524  1.1571
H       1.4223  -0.8637  2.0408
H       1.6413  0.7363  1.8696
H       -1.6456  -0.7359  -1.8659
