27

Co      0.0000  0.0000  0.0000
Cl      0.0002  -2.3056  -0.2198
Cl      -0.0001  2.3056  0.2199
N       -1.6236  0.1340  -1.3794
N       -1.6236  -0.1341  1.3793
N       1.6237  0.1377  -1.3794
N       1.6236  -0.1374  1.3794
C       -2.7865  0.4113  -0.5921
C       -2.7867  -0.4106  0.5921
C       2.7865  0.4113  -0.5922
C       2.7867  -0.4102  0.5923
H       -1.2543  0.8739  -1.9744
H       -2.8764  1.4564  -0.3298
H       -3.6917  0.1240  -1.1199
H       -3.6962  -0.1229  1.1155
H       -2.8770  -1.4528  0.3298
H       -1.4627  0.7906  1.7964
H       -1.2547  -0.8744  1.9739
H       1.4547  -0.7913  -1.7994
H       1.2545  0.8773  -1.9709
H       3.6917  0.1198  -1.1200
H       2.8802  1.4498  -0.3342
H       2.8811  -1.4487  0.3342
H       3.6916  -0.1183  1.1202
H       1.2547  -0.8774  1.9705
H       1.4542  0.7914  1.7998
H       -1.4584  -0.7910  -1.7960
