27

Co      0.0000  0.0000  0.0000
Cl      0.0002  -2.2574  -0.2106
Cl      -0.0001  2.2575  0.2107
N       -1.5643  0.1557  -1.4353
N       -1.4858  -0.1559  1.3616
N       1.4858  0.1557  -1.3616
N       1.5643  -0.1554  1.4352
C       -2.8218  0.4101  -0.6544
C       -2.7729  -0.3947  0.6347
C       2.7727  0.3954  -0.6349
C       2.8220  -0.4090  0.6546
H       -1.4079  0.9088  -2.0765
H       -2.8679  1.4648  -0.4534
H       -3.6991  0.1345  -1.2253
H       -3.6107  -0.1432  1.2647
H       -2.8195  -1.4494  0.4191
H       -1.5346  0.6819  1.9100
H       -1.3102  -0.9290  1.9729
H       1.5349  -0.6825  -1.9092
H       1.3100  0.9281  -1.9736
H       3.6107  0.1439  -1.2647
H       2.8189  1.4501  -0.4197
H       2.8688  -1.4638  0.4541
H       3.6990  -0.1325  1.2256
H       1.4083  -0.9086  2.0763
H       1.6325  0.6974  1.9538
H       -1.6331  -0.6970  -1.9538
