27

Co      0.0000  0.0000  0.0000
Cl      0.0002  -2.3448  -0.2251
Cl      -0.0001  2.3448  0.2252
N       -1.6045  0.1276  -1.4385
N       -1.5259  -0.1278  1.3648
N       1.5260  0.1313  -1.3648
N       1.6044  -0.1310  1.4384
C       -2.8120  0.4440  -0.6272
C       -2.7631  -0.4286  0.6076
C       2.7630  0.4293  -0.6077
C       2.8122  -0.4429  0.6275
H       -1.2150  0.8475  -2.0482
H       -2.8525  1.4863  -0.3537
H       -3.7179  0.1948  -1.1727
H       -3.6341  -0.2035  1.2076
H       -2.8041  -1.4708  0.3193
H       -1.3552  0.7971  1.7863
H       -1.1173  -0.8677  1.9446
H       1.3471  -0.7977  -1.7893
H       1.1170  0.8706  -1.9416
H       3.6295  0.2005  -1.2121
H       2.8073  1.4678  -0.3237
H       2.8572  -1.4814  0.3581
H       3.7178  -0.1891  1.1730
H       1.2154  -0.8510  2.0443
H       1.4448  0.8125  1.8339
H       -1.4491  -0.8121  -1.8301
