27

Co      0.0250  0.0488  0.0034
Cl      0.0002  -2.3551  -0.2246
Cl      -0.0001  2.2879  0.2180
N       -1.4238  0.1453  -1.3292
N       -1.4238  -0.1556  1.3324
N       1.3829  0.1316  -1.2289
N       1.3828  -0.1414  1.2323
C       -2.7400  0.4008  -0.6593
C       -2.7403  -0.4001  0.6559
C       2.7401  0.4053  -0.6503
C       2.7403  -0.4042  0.6470
H       -1.3511  0.8338  -2.0735
H       -2.7212  1.4690  -0.4938
H       -3.6609  0.1394  -1.1789
H       -3.6564  -0.1450  1.1802
H       -2.7219  -1.4683  0.4837
H       -1.6537  0.6491  1.9235
H       -1.3145  -0.9017  2.0024
H       1.5724  -0.7365  -1.7146
H       1.2693  0.8017  -1.9873
H       3.6154  0.1436  -1.2246
H       2.7350  1.4736  -0.4807
H       2.7358  -1.4725  0.4707
H       3.6153  -0.1487  1.2214
H       1.2324  -0.8691  1.9162
H       1.5988  0.6726  1.8025
H       -1.6316  -0.7135  -1.8356
