27

Co      0.0000  0.0000  0.0000
Cl      0.0002  -2.2823  -0.2159
Cl      -0.0001  2.2823  0.2160
N       -1.4124  0.1426  -1.2522
N       -1.4910  -0.1427  1.3257
N       1.4910  0.1425  -1.3257
N       1.4124  -0.1422  1.2521
C       -2.7466  0.4002  -0.6252
C       -2.7959  -0.4142  0.6448
C       2.7958  0.4149  -0.6449
C       2.7468  -0.3991  0.6254
H       -1.2203  0.8848  -1.8974
H       -2.8095  1.4549  -0.4077
H       -3.5356  0.1401  -1.3136
H       -3.6239  -0.1292  1.2745
H       -2.8593  -1.4689  0.4421
H       -1.5499  0.7307  1.8142
H       -1.3189  -0.8657  2.0000
H       1.5501  -0.7313  -1.8134
H       1.3187  0.8649  -2.0007
H       3.6239  0.1299  -1.2745
H       2.8587  1.4696  -0.4427
H       2.8105  -1.4538  0.4084
H       3.5355  -0.1381  1.3139
H       1.2206  -0.8846  1.8973
H       1.4514  0.7167  1.7696
H       -1.4520  -0.7163  -1.7697
