27

Co      0.0741  -0.0061  0.0389
Cl      -0.0063  -2.2430  -0.2162
Cl      -0.0067  2.2472  0.2123
N       -1.5050  0.1540  -1.3508
N       -1.5181  -0.1582  1.3875
N       1.5164  0.1435  -1.3798
N       1.3724  -0.1473  1.2693
C       -2.7371  0.4107  -0.6938
C       -2.7374  -0.4043  0.6766
C       2.7307  0.4234  -0.7142
C       2.6327  -0.3872  0.6579
H       -1.3069  0.8857  -1.9986
H       -2.7428  1.4732  -0.4865
H       -3.5846  0.2028  -1.3242
H       -3.5993  -0.2287  1.3055
H       -2.7148  -1.4627  0.4514
H       -1.5604  0.7016  1.8963
H       -1.3688  -0.9034  2.0399
H       1.5375  -0.7319  -1.8599
H       1.2841  0.8633  -2.0351
H       3.5947  0.1873  -1.3105
H       2.7374  1.4860  -0.5242
H       2.6114  -1.4456  0.4204
H       3.4326  -0.2324  1.3704
H       1.1493  -0.9198  1.8703
H       1.3734  0.6907  1.8161
H       -1.5279  -0.7158  -1.8518
