27

Co      0.0000  0.0000  0.0000
Cl      0.0002  -2.3338  -0.2176
Cl      -0.0001  2.3339  0.2177
N       -1.5364  0.1525  -1.3713
N       -1.4579  -0.1526  1.2975
N       1.4579  0.1524  -1.2976
N       1.5364  -0.1521  1.3712
C       -2.8251  0.4108  -0.6496
C       -2.7762  -0.3954  0.6299
C       2.7760  0.3961  -0.6301
C       2.8253  -0.4097  0.6498
H       -1.3711  0.8911  -2.0275
H       -2.8880  1.4655  -0.4520
H       -3.6711  0.1214  -1.2583
H       -3.5827  -0.1301  1.2977
H       -2.8395  -1.4501  0.4176
H       -1.4968  0.6948  1.8332
H       -1.2733  -0.9113  1.9239
H       1.4970  -0.6954  -1.8325
H       1.2731  0.9105  -1.9246
H       3.5827  0.1308  -1.2977
H       2.8390  1.4508  -0.4182
H       2.8889  -1.4644  0.4526
H       3.6710  -0.1194  1.2586
H       1.3714  -0.8909  2.0274
H       1.5947  0.7102  1.8771
H       -1.5952  -0.7099  -1.8771
