27

Co      0.0000  -0.0488  -0.0034
Cl      0.0002  -2.2682  -0.2089
Cl      -0.0001  2.3355  0.2157
N       -1.5671  0.1614  -1.4018
N       -1.5671  -0.1514  1.3983
N       1.5671  0.1613  -1.4017
N       1.5670  -0.1509  1.3983
C       -2.8268  0.4056  -0.6248
C       -2.8271  -0.4049  0.6281
C       2.8269  0.4056  -0.6249
C       2.8271  -0.4045  0.6284
H       -1.3100  0.9772  -1.9352
H       -2.9527  1.4467  -0.3775
H       -3.5901  0.1246  -1.3439
H       -3.5946  -0.1167  1.3429
H       -2.9534  -1.4460  0.3876
H       -1.4489  0.7506  1.8571
H       -1.3474  -0.9104  2.0054
H       1.4715  -0.6873  -1.9440
H       1.3102  0.9769  -1.9354
H       3.5901  0.1242  -1.3441
H       2.9528  1.4467  -0.3781
H       2.9537  -1.4456  0.3883
H       3.5900  -0.1159  1.3476
H       1.3474  -0.9096  2.0058
H       1.4441  0.7513  1.8568
H       -1.4715  -0.6870  -1.9443
