27

Co      0.0741  0.0427  0.0422
Cl      -0.0063  -2.3531  -0.2267
Cl      -0.0067  2.2899  0.2159
N       -1.4304  0.1417  -1.2829
N       -1.4435  -0.1560  1.3230
N       1.4418  0.1312  -1.3119
N       1.2978  -0.1451  1.2049
C       -2.7678  0.4069  -0.6630
C       -2.7681  -0.4005  0.6424
C       2.7614  0.4196  -0.6834
C       2.6634  -0.3833  0.6237
H       -1.3400  0.8105  -2.0429
H       -2.7682  1.4772  -0.5032
H       -3.6699  0.1308  -1.1998
H       -3.6801  -0.1634  1.1823
H       -2.7402  -1.4667  0.4579
H       -1.6848  0.6520  1.9030
H       -1.3648  -0.8956  2.0134
H       1.6395  -0.7463  -1.7792
H       1.3172  0.7882  -2.0793
H       3.6800  0.1153  -1.1833
H       2.7657  1.4900  -0.5408
H       2.6397  -1.4496  0.4269
H       3.5180  -0.1671  1.2398
H       1.1453  -0.9120  1.8438
H       1.5023  0.6411  1.8229
H       -1.6299  -0.7302  -1.7710
