27

Co      0.0250  -0.0061  0.0389
Cl      0.0002  -2.2822  -0.2216
Cl      -0.0001  2.2864  0.2176
N       -1.4233  0.1386  -1.3954
N       -1.4364  -0.1428  1.4321
N       1.4609  0.1249  -1.3688
N       1.3169  -0.1287  1.2583
C       -2.6966  0.4026  -0.6432
C       -2.6968  -0.3962  0.6260
C       2.7458  0.4219  -0.6539
C       2.6477  -0.3856  0.5975
H       -1.3979  0.8990  -2.0552
H       -2.7505  1.4545  -0.4278
H       -3.4620  0.1674  -1.3715
H       -3.4768  -0.1933  1.3528
H       -2.7226  -1.4440  0.3926
H       -1.5968  0.6786  2.0031
H       -1.4597  -0.9167  2.0965
H       1.6033  -0.7285  -1.8818
H       1.4143  0.8472  -2.0720
H       3.5049  0.1618  -1.3779
H       2.8134  1.4738  -0.4491
H       2.6874  -1.4334  0.3453
H       3.3428  -0.2068  1.4377
H       1.2795  -0.9037  1.9073
H       1.4391  0.6873  1.8380
H       -1.5643  -0.6928  -1.9586
