27

Co      0.0250  0.0000  0.0000
Cl      0.0002  -2.2785  -0.2084
Cl      -0.0001  2.2786  0.2085
N       -1.3986  0.1854  -1.3461
N       -1.3986  -0.1856  1.3460
N       1.3576  0.1680  -1.2459
N       1.3576  -0.1677  1.2459
C       -2.8290  0.3653  -0.6974
C       -2.8292  -0.3646  0.6974
C       2.8291  0.3698  -0.6884
C       2.8292  -0.3687  0.6885
H       -1.3797  0.9544  -2.0134
H       -2.7264  1.4345  -0.5237
H       -3.7445  0.1838  -1.2583
H       -3.7400  -0.1828  1.2630
H       -2.7270  -1.4366  0.5238
H       -1.4721  0.6410  1.9198
H       -1.3801  -0.9549  2.0130
H       1.4215  -0.6644  -1.7947
H       1.2980  0.9185  -1.9309
H       3.6989  0.1918  -1.3040
H       2.7364  1.4456  -0.5070
H       2.7372  -1.4445  0.5070
H       3.6989  -0.1902  1.3041
H       1.2981  -0.9185  1.9306
H       1.4209  0.6645  1.7950
H       -1.4769  -0.6414  -1.9194
