27

Co      0.0000  0.0000  0.0000
Cl      0.0002  -2.2946  -0.2123
Cl      -0.0001  2.2947  0.2124
N       -1.5945  0.1564  -1.3795
N       -1.5159  -0.1565  1.3057
N       1.5160  0.1563  -1.3058
N       1.5945  -0.1560  1.3794
C       -2.8562  0.4202  -0.6412
C       -2.8073  -0.4048  0.6215
C       2.8071  0.4054  -0.6217
C       2.8564  -0.4191  0.6414
H       -1.2034  0.9049  -1.9572
H       -2.9795  1.4662  -0.4144
H       -3.7097  0.0873  -1.2213
H       -3.6259  -0.0960  1.2562
H       -2.9310  -1.4507  0.3800
H       -1.3142  0.7499  1.7634
H       -1.1056  -0.9251  1.8536
H       1.3099  -0.7505  -1.7627
H       1.1054  0.9242  -1.8543
H       3.6213  0.0967  -1.2608
H       2.9305  1.4515  -0.3806
H       2.9804  -1.4651  0.4150
H       3.7096  -0.0853  1.2216
H       1.2037  -0.9046  1.9571
H       1.4076  0.7653  1.8072
H       -1.4081  -0.7650  -1.8073
