27

Co      0.0250  -0.0061  0.0389
Cl      0.0002  -2.2802  -0.2180
Cl      -0.0001  2.2844  0.2140
N       -1.4620  0.1866  -1.3045
N       -1.4752  -0.1908  1.3412
N       1.4996  0.1729  -1.2779
N       1.3556  -0.1767  1.1675
C       -2.7484  0.4076  -0.7067
C       -2.7486  -0.4012  0.6895
C       2.7975  0.4269  -0.7174
C       2.6995  -0.3906  0.6610
H       -1.5354  0.8133  -2.1518
H       -2.7684  1.4788  -0.5477
H       -3.5480  0.1684  -1.3942
H       -3.5582  -0.1943  1.3801
H       -2.7405  -1.4683  0.5126
H       -1.7290  0.6920  1.7964
H       -1.5972  -0.8310  2.1931
H       1.7400  -0.7419  -1.6750
H       1.5518  0.7615  -2.1642
H       3.5908  0.1672  -1.4035
H       2.8284  1.4981  -0.5690
H       2.7025  -1.4577  0.4652
H       3.4288  -0.2122  1.4634
H       1.4125  -0.8180  1.9995
H       1.5759  0.7007  1.6312
H       -1.7010  -0.7062  -1.7519
