27

Co      -0.1111  -0.0640  -0.0633
Cl      0.0101  -2.2476  -0.2190
Cl      0.0097  2.3426  0.2354
N       -1.4880  0.0985  -1.3578
N       -1.4683  -0.0773  1.2974
N       1.4709  0.1196  -1.3142
N       1.6868  -0.0980  1.4748
C       -2.7123  0.4455  -0.5697
C       -2.7125  -0.4534  0.6004
C       2.7221  0.4264  -0.5393
C       2.8695  -0.4780  0.6291
H       -1.1665  0.8760  -1.9241
H       -2.7509  1.4712  -0.2140
H       -3.4462  0.3006  -1.3756
H       -3.4308  -0.2490  1.4022
H       -2.7944  -1.4852  0.2819
H       -1.2731  0.9083  1.6240
H       -1.1305  -0.7498  1.9671
H       1.3361  -0.7684  -1.8137
H       1.2012  0.9145  -1.8644
H       3.4309  0.3172  -1.4007
H       2.7606  1.4465  -0.1647
H       2.9516  -1.5043  0.3357
H       3.6738  -0.2356  1.3163
H       1.4594  -0.7289  2.2168
H       1.5406  0.9264  1.7490
H       -1.3561  -0.7919  -1.8213
