27

Co      0.1111  0.0640  0.0633
Cl      -0.0096  -2.3369  -0.2240
Cl      -0.0099  2.2421  0.2079
N       -1.4715  0.1403  -1.3750
N       -1.4912  -0.1617  1.4352
N       1.4887  0.1247  -1.4186
N       1.2726  -0.1456  1.2580
C       -2.8630  0.4490  -0.6927
C       -2.8632  -0.4397  0.6618
C       2.8533  0.4680  -0.7233
C       2.7062  -0.4142  0.6337
H       -1.2862  0.8157  -2.0868
H       -2.8691  1.5025  -0.4743
H       -3.6700  0.2242  -1.3814
H       -3.6921  -0.2737  1.3483
H       -2.8269  -1.4913  0.4064
H       -1.5961  0.6609  2.0037
H       -1.3232  -0.9430  2.0429
H       1.5212  -0.8021  -1.8183
H       1.2519  0.7823  -2.1413
H       3.6852  0.2012  -1.3566
H       2.8653  1.5259  -0.5305
H       2.6759  -1.4659  0.3595
H       3.4422  -0.2797  1.4413
H       0.9940  -0.9680  1.7883
H       1.3156  0.6442  1.8837
H       -1.5068  -0.7781  -1.8058
