27

Co      0.0376  -0.0092  0.0583
Cl      0.0002  -2.2198  -0.2164
Cl      -0.0001  2.2260  0.2104
N       -1.4166  0.1464  -1.3915
N       -1.4363  -0.1526  1.4466
N       1.4730  0.1258  -1.3516
N       1.2570  -0.1317  1.1860
C       -2.7219  0.3945  -0.6721
C       -2.7222  -0.3853  0.6463
C       2.7956  0.4234  -0.6880
C       2.6485  -0.3696  0.6034
H       -1.5773  0.8823  -2.1410
H       -2.6863  1.4654  -0.5177
H       -3.5762  0.1799  -1.2931
H       -3.5915  -0.2193  1.2717
H       -2.6440  -1.4500  0.4649
H       -1.8873  0.6011  2.1013
H       -1.6698  -0.9086  2.2032
H       1.9037  -0.6757  -1.9197
H       1.6018  0.8048  -2.1662
H       3.6404  0.1716  -1.3026
H       2.7805  1.4943  -0.5494
H       2.5912  -1.4343  0.3936
H       3.3974  -0.2400  1.3923
H       1.3995  -0.8895  1.9192
H       1.6577  0.6139  1.8538
H       -1.8452  -0.6223  -2.0348
