27

Co      -0.0736  0.0092  -0.0583
Cl      0.0101  -2.3755  -0.2266
Cl      0.0097  2.3694  0.2329
N       -1.5847  0.1275  -1.4181
N       -1.6829  -0.1215  1.4732
N       1.6240  0.1282  -1.3346
N       1.7221  -0.1217  1.3898
C       -2.6646  0.3942  -0.5480
C       -2.7384  -0.4241  0.6032
C       2.7480  0.4039  -0.5334
C       2.8218  -0.4335  0.5887
H       -1.1273  0.9054  -1.9435
H       -2.7345  1.4313  -0.2373
H       -3.6091  0.1443  -1.0388
H       -3.7263  -0.0879  1.0015
H       -2.8517  -1.4632  0.3416
H       -1.4121  0.8462  1.8317
H       -1.1830  -0.8508  2.0350
H       1.3459  -0.8364  -1.7091
H       1.1864  0.8666  -1.9087
H       3.6581  0.1530  -1.0733
H       2.8383  1.4313  -0.2191
H       2.9557  -1.4670  0.3234
H       3.7685  -0.0962  1.0428
H       1.2417  -0.8115  2.0004
H       1.4436  0.8764  1.7095
H       -1.3074  -0.8037  -1.8314
