27

Co      0.0000  0.0000  0.0000
Cl      0.0002  -2.3375  -0.2239
Cl      -0.0001  2.3375  0.2240
N       -1.4318  0.1942  -1.2644
N       -1.4318  -0.1943  1.2643
N       1.4318  0.1941  -1.2643
N       1.4318  -0.1938  1.2644
C       -2.6791  0.4220  -0.7079
C       -2.6794  -0.4213  0.7079
C       2.6792  0.4220  -0.7080
C       2.6794  -0.4209  0.7081
H       -1.2909  0.7664  -2.1100
H       -2.7418  1.4853  -0.5084
H       -3.4601  0.1711  -1.4114
H       -3.4600  -0.1700  1.4116
H       -2.7424  -1.4846  0.5084
H       -1.3962  0.8096  1.5433
H       -1.2913  -0.7669  2.1095
H       1.3964  -0.8102  -1.5425
H       1.2911  0.7661  -2.1036
H       3.4600  0.1774  -1.4159
H       2.7376  1.4853  -0.5090
H       2.7384  -1.4842  0.5090
H       3.4600  -0.1758  1.4160
H       1.2846  -0.7662  2.1033
H       1.3959  0.8103  1.5429
H       -1.3964  -0.8100  -1.5429
