27

Co      0.0736  0.0000  0.0000
Cl      -0.0096  -2.2787  -0.2159
Cl      -0.0099  2.2787  0.2160
N       -1.4334  0.1445  -1.1982
N       -1.4334  -0.1447  1.1981
N       1.3942  0.1494  -1.2815
N       1.3942  -0.1491  1.2816
C       -2.8220  0.4069  -0.6524
C       -2.8222  -0.4062  0.6523
C       2.7387  0.3970  -0.6672
C       2.7389  -0.3959  0.6673
H       -1.3658  0.8162  -1.9749
H       -2.7965  1.4819  -0.4984
H       -3.7292  0.1469  -1.1887
H       -3.7224  -0.1458  1.1956
H       -2.7972  -1.4812  0.4984
H       -1.7200  0.6910  1.7263
H       -1.3663  -0.8168  1.9744
H       1.6829  -0.6622  -1.8531
H       1.3072  0.8601  -2.0046
H       3.6801  0.1318  -1.1545
H       2.6986  1.4721  -0.5235
H       2.6994  -1.4710  0.5236
H       3.6801  -0.1302  1.1546
H       1.3073  -0.8601  2.0042
H       1.6823  0.6623  1.8535
H       -1.7270  -0.6913  -1.7260
