27

Co      0.0000  0.0732  0.0050
Cl      0.0002  -2.3322  -0.2264
Cl      -0.0001  2.2312  0.2164
N       -1.3331  0.1268  -1.3146
N       -1.4509  -0.1421  1.4300
N       1.4509  0.1267  -1.4250
N       1.3330  -0.1416  1.3196
C       -2.6249  0.3967  -0.6276
C       -2.6988  -0.4181  0.6520
C       2.6986  0.4187  -0.6571
C       2.6251  -0.3955  0.6227
H       -1.1683  0.8401  -1.9938
H       -2.6473  1.4514  -0.4011
H       -3.4485  0.1708  -1.2790
H       -3.5811  -0.1650  1.2151
H       -2.7215  -1.4728  0.4375
H       -1.5474  0.6903  1.9808
H       -1.2604  -0.9122  2.0419
H       1.5072  -0.7869  -1.8488
H       1.3157  0.8103  -2.1487
H       3.5811  0.1556  -1.2202
H       2.7210  1.4735  -0.4533
H       2.6482  -1.4503  0.3866
H       3.4485  -0.1789  1.2742
H       1.1131  -0.9409  1.8876
H       1.3998  0.6689  1.9142
H       -1.3600  -0.7645  -1.7829
