27

Co      0.0000  0.0000  0.0000
Cl      0.0002  -2.3318  -0.2127
Cl      -0.0001  2.3319  0.2128
N       -1.3478  0.2328  -1.2872
N       -1.3478  -0.2329  1.2871
N       1.3478  0.2271  -1.2871
N       1.3478  -0.2268  1.2871
C       -2.7385  0.3308  -0.6608
C       -2.7388  -0.3301  0.6608
C       2.7386  0.3308  -0.6610
C       2.7388  -0.3297  0.6611
H       -1.3937  0.8970  -2.0813
H       -2.7968  1.3912  -0.4769
H       -3.5505  0.0451  -1.3106
H       -3.5505  -0.0440  1.3108
H       -2.7975  -1.3904  0.4770
H       -1.1536  0.7533  1.6218
H       -1.3942  -0.8976  2.0808
H       1.1595  -0.7540  -1.6154
H       1.3939  0.8911  -2.0805
H       3.5505  0.0570  -1.3108
H       2.7913  1.3968  -0.4720
H       2.7921  -1.3957  0.4720
H       3.5504  -0.0554  1.3109
H       1.3874  -0.8912  2.0802
H       1.1590  0.7541  1.6158
H       -1.1539  -0.7537  -1.6214
