27

Co      0.0736  -0.0092  0.0583
Cl      -0.0096  -2.3288  -0.2158
Cl      -0.0099  2.3350  0.2097
N       -1.3642  0.1808  -1.2046
N       -1.3839  -0.1870  1.2597
N       1.4429  0.1800  -1.3984
N       1.2268  -0.1858  1.2327
C       -2.7868  0.3268  -0.6597
C       -2.7871  -0.3175  0.6340
C       2.7772  0.3390  -0.7040
C       2.6301  -0.2851  0.6194
H       -1.2975  0.9617  -1.8361
H       -2.8009  1.3901  -0.4711
H       -3.5905  0.0920  -1.3353
H       -3.6126  -0.1313  1.3072
H       -2.7587  -1.3747  0.4184
H       -1.2334  0.6780  1.7837
H       -1.3900  -0.9880  1.8982
H       1.2933  -0.6890  -1.9048
H       1.3861  0.9704  -2.0260
H       3.6740  0.0677  -1.2422
H       2.7710  1.4081  -0.5422
H       2.5816  -1.3481  0.3864
H       3.4310  -0.1361  1.3319
H       1.1837  -1.0551  1.7790
H       1.0474  0.6272  1.8389
H       -1.1846  -0.6992  -1.7171
