27

Co      0.0736  0.0000  0.0000
Cl      -0.0096  -2.2653  -0.2101
Cl      -0.0099  2.2653  0.2102
N       -1.3875  0.2290  -1.2463
N       -1.3875  -0.2292  1.2462
N       1.3482  0.2282  -1.3296
N       1.3482  -0.2280  1.3296
C       -2.6752  0.3902  -0.7286
C       -2.6755  -0.3895  0.7286
C       2.5919  0.3803  -0.7435
C       2.5921  -0.3792  0.7435
H       -1.2620  0.8409  -2.0483
H       -2.8228  1.4591  -0.5840
H       -3.4181  0.0528  -1.4413
H       -3.4180  -0.0517  1.4415
H       -2.8235  -1.4583  0.5840
H       -1.3226  0.7503  1.5710
H       -1.2624  -0.8414  2.0479
H       1.2843  -0.7215  -1.6922
H       1.2033  0.8791  -2.0770
H       3.3690  0.0500  -1.4114
H       2.7149  1.4549  -0.6035
H       2.7158  -1.4538  0.6035
H       3.3689  -0.0484  1.4116
H       1.1968  -0.8792  2.0766
H       1.2838  0.7216  1.6925
H       -1.3229  -0.7506  -1.5707
