27

Co      0.0000  -0.0732  -0.0050
Cl      0.0002  -2.3219  -0.2247
Cl      -0.0001  2.4230  0.2349
N       -1.6117  0.1291  -1.3862
N       -1.6117  -0.1141  1.3810
N       1.6118  0.1346  -1.3861
N       1.6117  -0.1192  1.3811
C       -2.7499  0.4003  -0.5783
C       -2.7501  -0.3996  0.5833
C       2.7499  0.4003  -0.5784
C       2.7501  -0.3992  0.5836
H       -1.4562  0.8937  -2.0192
H       -2.7686  1.4537  -0.3287
H       -3.6790  0.1722  -1.0989
H       -3.6790  -0.1610  1.1041
H       -2.7693  -1.4487  0.3439
H       -1.6843  0.7968  1.8017
H       -1.5122  -0.7932  2.1247
H       1.7193  -0.7015  -1.9379
H       1.4564  0.8990  -2.0138
H       3.6790  0.1662  -1.0990
H       2.7744  1.4438  -0.3350
H       2.7752  -1.4427  0.3502
H       3.6789  -0.1545  1.1042
H       1.5121  -0.7981  2.1195
H       1.6784  0.7975  1.8070
H       -1.7249  -0.7012  -1.9327
