27

Co      0.0000  0.0000  0.0000
Cl      0.0002  -2.2307  -0.2079
Cl      -0.0001  2.2307  0.2080
N       -1.6193  0.1532  -1.4140
N       -1.5014  -0.1533  1.3034
N       1.5015  0.1531  -1.3034
N       1.6192  -0.1529  1.4139
C       -2.8498  0.4303  -0.6419
C       -2.7764  -0.4075  0.6124
C       2.7763  0.4081  -0.6126
C       2.8501  -0.4291  0.6421
H       -1.1202  0.9000  -1.9615
H       -2.9914  1.4719  -0.3990
H       -3.7255  0.0814  -1.1828
H       -3.5997  -0.0950  1.2351
H       -2.9184  -1.4491  0.3475
H       -1.1795  0.7806  1.7260
H       -0.9733  -0.9300  1.8064
H       1.1730  -0.7812  -1.7253
H       0.9731  0.9292  -1.8071
H       3.5930  0.0958  -1.2419
H       2.9179  1.4498  -0.3481
H       2.9924  -1.4708  0.3997
H       3.7254  -0.0795  1.1831
H       1.1205  -0.8998  1.9614
H       1.3198  0.8034  1.7919
H       -1.3203  -0.8030  -1.7919
