27

Co      0.0000  0.0000  0.0000
Cl      0.0002  -2.3029  -0.2217
Cl      -0.0001  2.3029  0.2218
N       -1.5826  0.1154  -1.3148
N       -1.5826  -0.1156  1.3147
N       1.5826  0.1210  -1.3148
N       1.5826  -0.1207  1.3148
C       -2.8654  0.4420  -0.6117
C       -2.8656  -0.4412  0.6116
C       2.8655  0.4419  -0.6118
C       2.8656  -0.4408  0.6119
H       -1.4045  0.8056  -2.0285
H       -2.8494  1.4910  -0.3445
H       -3.7159  0.2576  -1.2603
H       -3.7159  -0.2565  1.2604
H       -2.8501  -1.4903  0.3445
H       -1.6682  0.7750  1.7670
H       -1.4049  -0.8061  2.0280
H       1.6628  -0.7757  -1.7719
H       1.4047  0.8109  -2.0231
H       3.7159  0.2516  -1.2604
H       2.8552  1.4854  -0.3507
H       2.8560  -1.4843  0.3508
H       3.7158  -0.2500  1.2606
H       1.4049  -0.8110  2.0228
H       1.6623  0.7757  1.7723
H       -1.6684  -0.7754  -1.7667
