27

Co      0.0000  0.0000  0.0000
Cl      0.0002  -2.3616  -0.2297
Cl      -0.0001  2.3617  0.2298
N       -1.5789  0.1106  -1.3432
N       -1.5789  -0.1107  1.3431
N       1.5789  0.1161  -1.3431
N       1.5789  -0.1159  1.3431
C       -2.8052  0.4560  -0.5991
C       -2.8054  -0.4553  0.5991
C       2.8052  0.4560  -0.5992
C       2.8054  -0.4549  0.5993
H       -1.0568  0.8102  -1.9391
H       -2.8584  1.4920  -0.2827
H       -3.6777  0.2224  -1.1942
H       -3.6844  -0.2213  1.1876
H       -2.8591  -1.4913  0.2827
H       -1.3034  0.8737  1.6730
H       -1.0572  -0.8107  1.9386
H       1.2912  -0.8743  -1.6779
H       1.0570  0.8155  -1.9337
H       3.6776  0.2164  -1.1943
H       2.8642  1.4864  -0.2890
H       2.8650  -1.4853  0.2890
H       3.6776  -0.2149  1.1945
H       1.0571  -0.8156  1.9334
H       1.2907  0.8744  1.6783
H       -1.2968  -0.8740  -1.6726
