27

Co      0.0000  0.0000  0.0000
Cl      0.0002  -2.2414  -0.2079
Cl      -0.0001  2.2415  0.2080
N       -1.6123  0.1074  -1.4316
N       -1.6123  -0.1076  1.4315
N       1.6123  0.1074  -1.4315
N       1.6122  -0.1071  1.4315
C       -2.7930  0.4542  -0.6342
C       -2.7933  -0.4535  0.6342
C       2.7931  0.4542  -0.6343
C       2.7933  -0.4531  0.6344
H       -0.8803  1.0106  -1.7330
H       -3.0122  1.4958  -0.4189
H       -3.6339  0.0455  -1.1921
H       -3.6406  -0.0444  1.1854
H       -3.0128  -1.4951  0.4189
H       -1.5138  0.6710  2.0852
H       -0.8808  -1.0112  1.7325
H       1.5073  -0.6716  -2.0845
H       0.8805  1.0103  -1.7399
H       3.6338  0.0385  -1.1922
H       3.0123  1.4959  -0.4195
H       3.0131  -1.4948  0.4195
H       3.6338  -0.0369  1.1924
H       0.8873  -1.0104  1.7396
H       1.5068  0.6717  2.0849
H       -1.5073  -0.6713  -2.0849
