27

Co      0.0000  -0.0732  -0.0050
Cl      0.0002  -2.2390  -0.2109
Cl      -0.0001  2.3400  0.2211
N       -1.5149  0.1555  -1.3693
N       -1.5149  -0.1404  1.3641
N       1.5150  0.1554  -1.3692
N       1.5149  -0.1399  1.3642
C       -2.7596  0.4192  -0.6247
C       -2.7598  -0.4185  0.6297
C       2.7597  0.4192  -0.6248
C       2.7598  -0.4181  0.6299
H       -0.9707  0.9572  -1.8391
H       -2.8905  1.4609  -0.3630
H       -3.6112  0.1018  -1.2044
H       -3.6179  -0.0906  1.2028
H       -2.8911  -1.4601  0.3782
H       -1.1876  0.8476  1.6988
H       -1.0267  -0.8568  1.9447
H       1.2214  -0.7523  -1.8294
H       0.9709  0.9569  -1.8394
H       3.6111  0.1015  -1.2045
H       2.8906  1.4609  -0.3636
H       2.8914  -1.4598  0.3788
H       3.6111  -0.0898  1.2097
H       1.0266  -0.8560  1.9451
H       1.1805  0.8483  1.6985
H       -1.2214  -0.7520  -1.8298
