27

Co      0.0000  0.0732  0.0050
Cl      0.0002  -2.2570  -0.2072
Cl      -0.0001  2.1560  0.1972
N       -1.3076  0.1725  -1.2863
N       -1.3076  -0.1877  1.2912
N       1.3077  0.1668  -1.2862
N       1.3076  -0.1816  1.2913
C       -2.7896  0.4032  -0.7284
C       -2.7899  -0.4025  0.7233
C       2.7897  0.4032  -0.7285
C       2.7899  -0.4021  0.7235
H       -1.2214  0.8674  -2.0210
H       -2.7711  1.4797  -0.6188
H       -3.6593  0.1145  -1.3008
H       -3.6525  -0.1235  1.3027
H       -2.7717  -1.4832  0.6036
H       -1.5802  0.5669  1.9599
H       -1.1662  -0.9690  1.9145
H       1.5525  -0.6635  -1.8223
H       1.2216  0.8615  -2.0269
H       3.6593  0.1197  -1.3010
H       2.7656  1.4895  -0.6138
H       2.7664  -1.4884  0.5987
H       3.6592  -0.1282  1.2961
H       1.1662  -0.9626  1.9205
H       1.5924  0.5676  1.9539
H       -1.5469  -0.6632  -1.8283
