27

Co      0.0376  0.0640  0.0633
Cl      0.0002  -2.3849  -0.2320
Cl      -0.0001  2.2901  0.2159
N       -1.4164  0.1345  -1.3133
N       -1.4361  -0.1559  1.3735
N       1.4728  0.1139  -1.2734
N       1.2568  -0.1349  1.1128
C       -2.7201  0.4096  -0.6548
C       -2.7203  -0.4003  0.6240
C       2.7938  0.4385  -0.6707
C       2.6467  -0.3847  0.5811
H       -1.2501  0.8179  -2.0232
H       -2.7895  1.4674  -0.4640
H       -3.5440  0.1121  -1.2843
H       -3.5661  -0.1616  1.2512
H       -2.7473  -1.4520  0.3961
H       -1.5314  0.6631  1.9525
H       -1.2871  -0.9452  1.9793
H       1.5006  -0.8336  -1.6395
H       1.2747  0.7404  -2.0483
H       3.6082  0.1038  -1.2938
H       2.8838  1.4963  -0.4957
H       2.6944  -1.4363  0.3247
H       3.3652  -0.1823  1.3785
H       1.0168  -0.9261  1.6953
H       1.2951  0.6758  1.7049
H       -1.4421  -0.7802  -1.7546
