27

Co      0.0000  -0.0732  -0.0050
Cl      0.0002  -2.1909  -0.2028
Cl      -0.0001  2.2920  0.2130
N       -1.5510  0.1675  -1.4270
N       -1.5510  -0.1525  1.4219
N       1.5510  0.1674  -1.4270
N       1.5509  -0.1520  1.4219
C       -2.8126  0.4016  -0.6444
C       -2.8129  -0.4009  0.6495
C       2.8127  0.4015  -0.6445
C       2.8129  -0.4004  0.6497
H       -1.3615  0.9814  -1.9895
H       -2.8563  1.4563  -0.4319
H       -3.6817  0.1442  -1.2310
H       -3.6817  -0.1330  1.2362
H       -2.8570  -1.4556  0.4471
H       -1.5918  0.7274  1.9005
H       -1.4174  -0.8809  2.0951
H       1.6325  -0.6321  -2.0311
H       1.3617  0.9811  -1.9898
H       3.6817  0.1438  -1.2312
H       2.8565  1.4563  -0.4326
H       2.8573  -1.4552  0.4477
H       3.6816  -0.1321  1.2364
H       1.4174  -0.8801  2.0955
H       1.5916  0.7281  1.9002
H       -1.6325  -0.6318  -2.0315
