27

Co      -0.1111  0.0000  0.0000
Cl      0.0101  -2.2894  -0.2159
Cl      0.0097  2.2895  0.2160
N       -1.5198  0.1378  -1.3080
N       -1.5198  -0.1379  1.3079
N       1.6205  0.1533  -1.3748
N       1.6205  -0.1530  1.3748
C       -2.6435  0.4316  -0.5962
C       -2.6438  -0.4309  0.5962
C       2.7270  0.4345  -0.5952
C       2.7271  -0.4334  0.5953
H       -0.8624  0.8894  -1.8037
H       -3.0092  1.4774  -0.4183
H       -3.4471  -0.1229  -1.1358
H       -3.4539  0.1240  1.1291
H       -3.0098  -1.4725  0.4183
H       -1.3715  0.7699  1.7493
H       -0.8629  -0.8899  1.8032
H       1.4979  -0.7658  -1.8020
H       1.0444  0.8927  -1.9042
H       3.5644  -0.1154  -1.1020
H       3.0869  1.4762  -0.4149
H       3.0877  -1.4751  0.4149
H       3.5644  0.1170  1.1021
H       1.0445  -0.8928  1.9039
H       1.4974  0.7659  1.8024
H       -1.3650  -0.7702  -1.7490
