27

Co      0.0000  0.0000  0.0000
Cl      0.0002  -2.2307  -0.2079
Cl      -0.0001  2.2307  0.2080
N       -1.4824  0.0934  -1.3423
N       -1.4824  -0.0935  1.3422
N       1.4824  0.0933  -1.3422
N       1.4824  -0.0930  1.3422
C       -2.8608  0.3919  -0.5645
C       -2.8610  -0.3912  0.5645
C       2.8608  0.3919  -0.5646
C       2.8610  -0.3908  0.5647
H       -1.2622  0.9931  -1.8081
H       -2.9180  1.4380  -0.3438
H       -3.7103  0.1016  -1.1634
H       -3.7103  -0.1005  1.1636
H       -2.9187  -1.4373  0.3438
H       -1.6186  0.6299  2.0768
H       -1.2626  -0.9937  1.8077
H       1.6188  -0.6305  -2.0761
H       1.2624  0.9928  -1.8150
H       3.7103  0.0946  -1.1593
H       2.9224  1.4380  -0.3444
H       2.9233  -1.4369  0.3444
H       3.7102  -0.0930  1.1594
H       1.2692  -0.9929  1.8147
H       1.6183  0.6306  2.0764
H       -1.6189  -0.6302  -2.0764
