27

Co      -0.1111  0.0000  0.0000
Cl      0.0101  -2.3058  -0.2271
Cl      0.0097  2.3059  0.2272
N       -1.4833  0.1018  -1.3935
N       -1.4833  -0.1019  1.3934
N       1.5840  0.1229  -1.4603
N       1.5840  -0.1226  1.4603
C       -2.7119  0.4394  -0.6194
C       -2.7121  -0.4387  0.6194
C       2.7953  0.4424  -0.6184
C       2.7955  -0.4413  0.6185
H       -1.2727  0.8142  -2.0679
H       -2.6523  1.4885  -0.3433
H       -3.6031  0.2893  -1.2171
H       -3.6030  -0.2882  1.2172
H       -2.6529  -1.4878  0.3433
H       -1.5676  0.7741  1.8644
H       -1.2732  -0.8148  2.0674
H       1.6951  -0.7700  -1.9227
H       1.4547  0.8232  -2.1628
H       3.7204  0.2912  -1.1833
H       2.7356  1.4859  -0.3455
H       2.7364  -1.4848  0.3456
H       3.7203  -0.2896  1.1834
H       1.4549  -0.8233  2.1625
H       1.6946  0.7701  1.9231
H       -1.5678  -0.7745  -1.8641
