27

Co      0.0000  0.0000  0.0000
Cl      0.0002  -2.3080  -0.2105
Cl      -0.0001  2.3081  0.2106
N       -1.6285  0.1681  -1.4269
N       -1.6285  -0.1682  1.4268
N       1.6285  0.1680  -1.4269
N       1.6285  -0.1677  1.4269
C       -2.8571  0.4131  -0.6344
C       -2.8573  -0.4124  0.6343
C       2.8571  0.4130  -0.6345
C       2.8573  -0.4119  0.6346
H       -1.1255  0.9537  -1.9247
H       -2.9986  1.4547  -0.3881
H       -3.7300  0.0755  -1.1882
H       -3.7367  -0.0744  1.1815
H       -2.9993  -1.4540  0.3881
H       -1.3208  0.7598  1.8540
H       -1.1259  -0.9542  1.9242
H       1.3143  -0.7604  -1.8533
H       1.1257  0.9534  -1.9249
H       3.7299  0.0751  -1.1883
H       2.9987  1.4547  -0.3887
H       2.9996  -1.4536  0.3888
H       3.7299  -0.0735  1.1885
H       1.1258  -0.9534  1.9246
H       1.3138  0.7605  1.8536
H       -1.3143  -0.7602  -1.8536
