27

Co      0.0376  -0.0092  0.0583
Cl      0.0002  -2.2198  -0.2164
Cl      -0.0001  2.2260  0.2104
N       -1.4394  0.2085  -1.4333
N       -1.4590  -0.2147  1.4884
N       1.4957  0.1879  -1.3934
N       1.2797  -0.1938  1.2278
C       -2.7485  0.4081  -0.7663
C       -2.7488  -0.3988  0.7405
C       2.8222  0.4369  -0.7822
C       2.6751  -0.3831  0.6976
H       -1.4068  0.8194  -2.2554
H       -2.5653  1.4702  -0.5015
H       -3.6305  0.3829  -1.4300
H       -3.6526  -0.4223  1.4019
H       -2.5231  -1.4590  0.4488
H       -1.2916  0.7949  1.7704
H       -1.4993  -0.8457  2.3175
H       1.3012  -0.8696  -1.5888
H       1.4313  0.7419  -2.2738
H       3.6947  0.3813  -1.4438
H       2.6553  1.5033  -0.5332
H       2.4659  -1.4433  0.3774
H       3.4517  -0.4496  1.5336
H       1.2223  -0.8266  2.0269
H       1.0553  0.8077  1.5229
H       -1.2428  -0.8161  -1.7038
