27

Co      0.1111  0.0000  0.0000
Cl      -0.0096  -2.3375  -0.2239
Cl      -0.0099  2.3375  0.2240
N       -1.4187  0.1494  -1.2814
N       -1.4187  -0.1496  1.2813
N       1.3181  0.1338  -1.2144
N       1.3180  -0.1335  1.2145
C       -2.7686  0.4035  -0.6592
C       -2.7688  -0.4028  0.6592
C       2.6853  0.4005  -0.6604
C       2.6854  -0.3993  0.6604
H       -1.3792  0.8321  -2.0478
H       -2.7222  1.4785  -0.5060
H       -3.7152  0.1515  -1.1492
H       -3.7084  -0.1504  1.1561
H       -2.7228  -1.4778  0.5060
H       -1.7189  0.6819  1.8239
H       -1.3796  -0.8327  2.0473
H       1.5930  -0.6873  -1.7697
H       1.1976  0.8281  -1.9477
H       3.5979  0.1432  -1.1833
H       2.6447  1.4756  -0.5106
H       2.6455  -1.4745  0.5107
H       3.5978  -0.1417  1.1834
H       1.1978  -0.8282  1.9474
H       1.5925  0.6873  1.7701
H       -1.7260  -0.6823  -1.8236
