27

Co      0.0000  0.0000  0.0000
Cl      0.0002  -2.2471  -0.2191
Cl      -0.0001  2.2471  0.2192
N       -1.6630  0.1197  -1.4139
N       -1.6630  -0.1198  1.4138
N       1.6630  0.1252  -1.4138
N       1.6630  -0.1249  1.4138
C       -2.7453  0.4170  -0.5682
C       -2.7455  -0.4163  0.5682
C       2.7454  0.4169  -0.5684
C       2.7455  -0.4158  0.5684
H       -1.1966  0.8535  -1.9873
H       -2.8368  1.4572  -0.2722
H       -3.6985  0.1365  -1.0306
H       -3.7053  -0.1354  1.0240
H       -2.8374  -1.4522  0.2722
H       -1.4023  0.8417  1.7754
H       -1.1970  -0.8541  1.9868
H       1.3902  -0.8423  -1.7803
H       1.1968  0.8589  -1.9819
H       3.6985  0.1305  -1.0308
H       2.8425  1.4474  -0.2785
H       2.8433  -1.4463  0.2785
H       3.6984  -0.1289  1.0309
H       1.1969  -0.8589  1.9815
H       1.3897  0.8424  1.7807
H       -1.3958  -0.8421  -1.7751
