27

Co      0.0000  0.0000  0.0000
Cl      0.0002  -2.2787  -0.2159
Cl      -0.0001  2.2787  0.2160
N       -1.4839  0.1531  -1.2431
N       -1.4839  -0.1532  1.2430
N       1.4839  0.1530  -1.2430
N       1.4838  -0.1527  1.2431
C       -2.7392  0.4088  -0.7012
C       -2.7395  -0.4081  0.7012
C       2.7393  0.4087  -0.7014
C       2.7394  -0.4076  0.7014
H       -1.2593  0.8740  -1.9028
H       -2.7395  1.4720  -0.4911
H       -3.5347  0.2229  -1.4101
H       -3.5347  -0.2218  1.4103
H       -2.7401  -1.4713  0.4911
H       -1.4748  0.7219  1.7304
H       -1.2597  -0.8745  1.9024
H       1.4750  -0.7226  -1.7297
H       1.2595  0.8737  -1.9031
H       3.5347  0.2225  -1.4146
H       2.7353  1.4721  -0.4918
H       2.7361  -1.4710  0.4918
H       3.5346  -0.2209  1.4147
H       1.2597  -0.8738  1.9027
H       1.4745  0.7227  1.7301
H       -1.4750  -0.7223  -1.7301
