27

Co      0.0000  0.0092  -0.0583
Cl      0.0002  -2.3059  -0.2186
Cl      -0.0001  2.2999  0.2249
N       -1.5336  0.1185  -1.2872
N       -1.6317  -0.1125  1.3423
N       1.5336  0.1241  -1.2872
N       1.6317  -0.1176  1.3424
C       -2.8286  0.4266  -0.5841
C       -2.9024  -0.4566  0.6393
C       2.8287  0.4266  -0.5842
C       2.9024  -0.4561  0.6395
H       -1.3769  0.8332  -1.9825
H       -2.7912  1.4726  -0.2923
H       -3.6607  0.2852  -1.2756
H       -3.7711  -0.2289  1.2451
H       -2.9084  -1.5087  0.3966
H       -1.7172  0.7965  1.7670
H       -1.4325  -0.7785  2.0741
H       1.6137  -0.7572  -1.7719
H       1.3771  0.8385  -1.9771
H       3.6607  0.2792  -1.2758
H       2.7969  1.4670  -0.2986
H       2.9143  -1.5027  0.4029
H       3.7710  -0.2224  1.2452
H       1.4325  -0.7834  2.0688
H       1.7113  0.7972  1.7723
H       -1.6193  -0.7539  -1.7667
