27

Co      0.1111  0.0640  0.0633
Cl      -0.0096  -2.2647  -0.2102
Cl      -0.0099  2.1699  0.1941
N       -1.4076  0.1776  -1.3986
N       -1.4272  -0.1990  1.4588
N       1.4247  0.1563  -1.4421
N       1.2087  -0.1773  1.2815
C       -2.8174  0.4122  -0.7208
C       -2.8176  -0.4029  0.6899
C       2.8077  0.4313  -0.7514
C       2.6606  -0.3774  0.6618
H       -1.2279  0.9122  -2.0398
H       -2.9012  1.4714  -0.5621
H       -3.6035  0.0986  -1.3941
H       -3.6256  -0.1480  1.3610
H       -2.8589  -1.4601  0.4943
H       -1.5005  0.5868  2.0952
H       -1.2648  -1.0395  1.9959
H       1.4312  -0.7280  -1.9041
H       1.1936  0.8732  -2.1000
H       3.6187  0.0812  -1.3693
H       2.8917  1.5003  -0.6127
H       2.7023  -1.4403  0.4418
H       3.3757  -0.1596  1.4540
H       0.9357  -1.0589  1.7470
H       1.2256  0.5702  1.9695
H       -1.4112  -0.7040  -1.8973
