27

Co      0.1111  -0.0092  0.0583
Cl      -0.0096  -2.2786  -0.2244
Cl      -0.0099  2.2848  0.2184
N       -1.4754  0.1520  -1.3610
N       -1.4951  -0.1582  1.4161
N       1.4925  0.1363  -1.4045
N       1.2765  -0.1421  1.2389
C       -2.6691  0.4135  -0.7208
C       -2.6693  -0.4042  0.6950
C       2.6594  0.4326  -0.7514
C       2.5123  -0.3787  0.6668
H       -1.2633  0.8734  -2.0112
H       -2.6414  1.4799  -0.5123
H       -3.5281  0.2422  -1.3471
H       -3.5502  -0.2816  1.3190
H       -2.5991  -1.4644  0.4596
H       -1.5317  0.7059  1.9178
H       -1.3558  -0.8997  2.0733
H       1.4972  -0.7511  -1.8636
H       1.2290  0.8400  -2.0657
H       3.5433  0.2192  -1.3266
H       2.6332  1.4990  -0.5685
H       2.4439  -1.4390  0.4127
H       3.3003  -0.2876  1.4163
H       1.0266  -0.9247  1.8187
H       1.2512  0.6892  1.7978
H       -1.4828  -0.7271  -1.8512
