27

Co      0.0736  0.0732  0.0050
Cl      -0.0096  -2.3322  -0.2264
Cl      -0.0099  2.2312  0.2164
N       -1.3694  0.1201  -1.3535
N       -1.3694  -0.1354  1.3584
N       1.3301  0.1249  -1.4368
N       1.3301  -0.1398  1.4418
C       -2.7583  0.4507  -0.6730
C       -2.7585  -0.4499  0.6679
C       2.6750  0.4408  -0.6878
C       2.6752  -0.4397  0.6828
H       -1.1868  0.7864  -2.0817
H       -2.7247  1.5011  -0.4273
H       -3.5605  0.2764  -1.3807
H       -3.5604  -0.2854  1.3758
H       -2.7253  -1.5046  0.4122
H       -1.4536  0.7067  1.8965
H       -1.1317  -0.8879  1.9752
H       1.3693  -0.7738  -1.8921
H       1.1282  0.8302  -2.1114
H       3.5114  0.2613  -1.3465
H       2.6267  1.4956  -0.4524
H       2.6275  -1.4945  0.4373
H       3.5113  -0.2698  1.3416
H       1.0728  -0.9313  2.0050
H       1.4091  0.6779  2.0237
H       -1.4134  -0.8030  -1.7649
