27

Co      0.0000  0.0000  0.0000
Cl      0.0002  -2.2121  -0.2133
Cl      -0.0001  2.2122  0.2134
N       -1.2493  0.1343  -1.2280
N       -1.3671  -0.1344  1.3383
N       1.3672  0.1342  -1.3384
N       1.2493  -0.1339  1.2279
C       -2.7667  0.3724  -0.6620
C       -2.8405  -0.3938  0.6914
C       2.8404  0.3944  -0.6916
C       2.7669  -0.3712  0.6622
H       -1.4903  0.8728  -2.0075
H       -2.5058  1.4359  -0.4024
H       -3.5599  0.4196  -1.4701
H       -3.6856  -0.4037  1.4182
H       -2.5801  -1.4615  0.4540
H       -1.6223  0.6933  1.8882
H       -1.6380  -0.8439  2.1616
H       1.6293  -0.6939  -1.8875
H       1.6378  0.8431  -2.1623
H       3.6924  0.4045  -1.4114
H       2.5796  1.4623  -0.4546
H       2.5068  -1.4391  0.4031
H       3.5598  -0.4176  1.4704
H       1.4906  -0.8726  2.0074
H       1.4815  0.6719  1.8216
H       -1.4820  -0.6716  -1.8217
