27

Co      -0.0736  -0.0640  -0.0633
Cl      0.0101  -2.2420  -0.2078
Cl      0.0097  2.3369  0.2241
N       -1.4462  0.1610  -1.3834
N       -1.5444  -0.1398  1.4334
N       1.4855  0.1560  -1.2999
N       1.5836  -0.1344  1.3501
C       -2.6811  0.3990  -0.6044
C       -2.7549  -0.4290  0.6647
C       2.7645  0.4088  -0.5898
C       2.8383  -0.4383  0.6502
H       -0.9137  1.0069  -1.8078
H       -2.7832  1.4375  -0.3231
H       -3.5314  0.1221  -1.2026
H       -3.6486  -0.0557  1.1703
H       -2.9004  -1.4736  0.4426
H       -1.2146  0.8543  1.7626
H       -1.0248  -0.8512  2.0054
H       1.1944  -0.7486  -1.7656
H       0.9727  0.9624  -1.7787
H       3.5804  0.1364  -1.2370
H       2.8813  1.4474  -0.2992
H       2.9987  -1.4831  0.4187
H       3.6908  -0.0695  1.2116
H       1.0836  -0.8063  1.9764
H       1.2516  0.8845  1.6347
H       -1.1503  -0.7158  -1.8935
