27

Co      0.0000  0.0732  0.0050
Cl      0.0002  -2.2626  -0.2184
Cl      -0.0001  2.1617  0.2084
N       -1.2910  0.1272  -1.2458
N       -1.4088  -0.1425  1.3612
N       1.4088  0.1271  -1.3562
N       1.2910  -0.1420  1.2508
C       -2.7599  0.3864  -0.6519
C       -2.8337  -0.4078  0.6763
C       2.8336  0.4085  -0.6815
C       2.7601  -0.3853  0.6471
H       -1.2184  0.8349  -1.9631
H       -2.5790  1.4369  -0.3509
H       -3.5697  0.3714  -1.4119
H       -3.7022  -0.3656  1.3481
H       -2.6533  -1.4625  0.3874
H       -1.3231  0.7359  1.8545
H       -1.3106  -0.9070  2.0112
H       1.2830  -0.8325  -1.7225
H       1.3659  0.8052  -2.1179
H       3.7022  0.3562  -1.3531
H       2.6527  1.4633  -0.4031
H       2.5799  -1.4401  0.3365
H       3.5696  -0.3795  1.4071
H       1.1632  -0.9357  1.8569
H       1.1756  0.7146  1.7879
H       -1.1357  -0.8102  -1.6566
