27

Co      0.0376  0.0640  0.0633
Cl      0.0002  -2.3793  -0.2208
Cl      -0.0001  2.2845  0.2047
N       -1.3190  0.1820  -1.3239
N       -1.3386  -0.2034  1.3841
N       1.3753  0.1558  -1.2840
N       1.1593  -0.1768  1.1234
C       -2.7874  0.4015  -0.7481
C       -2.7877  -0.3922  0.7172
C       2.8611  0.4304  -0.7640
C       2.7140  -0.3765  0.6744
H       -1.2245  0.8807  -2.0421
H       -2.7873  1.4810  -0.6604
H       -3.6727  0.0783  -1.2908
H       -3.6880  -0.1278  1.2645
H       -2.7450  -1.4698  0.5925
H       -1.6319  0.5372  2.0778
H       -1.2615  -1.0080  1.9982
H       1.6136  -0.7078  -1.7592
H       1.2491  0.7975  -2.0729
H       3.7369  0.0757  -1.3003
H       2.8759  1.5198  -0.6865
H       2.6866  -1.4598  0.5155
H       3.4939  -0.1541  1.3850
H       0.9912  -0.9832  1.7198
H       1.4080  0.5499  1.8246
H       -1.5495  -0.6543  -1.8799
