27

Co      0.0000  0.0000  0.0000
Cl      0.0002  -2.2894  -0.2159
Cl      -0.0001  2.2895  0.2160
N       -1.3909  0.1564  -1.3514
N       -1.3909  -0.1565  1.3513
N       1.3909  0.1563  -1.3513
N       1.3909  -0.1561  1.3513
C       -2.8475  0.3846  -0.6984
C       -2.8477  -0.3838  0.6984
C       2.8476  0.3845  -0.6986
C       2.8477  -0.3834  0.6986
H       -1.4246  0.8825  -2.0889
H       -2.5649  1.4554  -0.4722
H       -3.8424  0.3625  -1.2202
H       -3.8355  -0.3614  1.2271
H       -2.5655  -1.4589  0.4722
H       -1.5072  0.6868  1.8845
H       -1.4250  -0.8831  2.0885
H       1.5142  -0.6875  -1.8838
H       1.4248  0.8822  -2.0892
H       3.8423  0.3621  -1.2203
H       2.5650  1.4596  -0.4728
H       2.5658  -1.4585  0.4728
H       3.8423  -0.3606  1.2205
H       1.4250  -0.8823  2.0888
H       1.5137  0.6876  1.8842
H       -1.5142  -0.6872  -1.8842
