27

Co      0.0376  0.0732  0.0050
Cl      0.0002  -2.3236  -0.2097
Cl      -0.0001  2.2226  0.1997
N       -1.3742  0.1904  -1.3435
N       -1.3742  -0.2057  1.3484
N       1.3128  0.1642  -1.1932
N       1.3127  -0.1791  1.1982
C       -2.8409  0.3972  -0.7352
C       -2.8411  -0.3965  0.7301
C       2.8409  0.4040  -0.7217
C       2.8411  -0.4029  0.7167
H       -1.3187  0.9016  -2.0654
H       -2.8300  1.4737  -0.6367
H       -3.7318  0.0906  -1.2821
H       -3.7250  -0.0996  1.2839
H       -2.8306  -1.4772  0.6216
H       -1.6528  0.5396  2.0393
H       -1.2636  -1.0031  1.9589
H       1.5363  -0.6703  -1.7207
H       1.1959  0.8479  -1.9415
H       3.6635  0.1026  -1.3505
H       2.8450  1.4904  -0.6112
H       2.8458  -1.4893  0.5961
H       3.6635  -0.1112  1.3456
H       1.1406  -0.9489  1.8351
H       1.5762  0.5744  1.8524
H       -1.6194  -0.6359  -1.9077
