27

Co      -0.0376  0.0092  -0.0583
Cl      0.0002  -2.3033  -0.2128
Cl      -0.0001  2.2972  0.2191
N       -1.5184  0.0941  -1.3921
N       -1.4988  -0.0881  1.3368
N       1.4621  0.1145  -1.4318
N       1.6780  -0.1081  1.5975
C       -2.7591  0.3942  -0.5935
C       -2.7593  -0.4021  0.6192
C       2.6855  0.3653  -0.5778
C       2.8329  -0.4169  0.6625
H       -1.1647  1.0385  -1.7568
H       -2.8096  1.4255  -0.2921
H       -3.5014  0.2237  -1.3772
H       -3.4861  -0.1822  1.3988
H       -2.8531  -1.4395  0.3449
H       -1.3206  0.6895  2.0048
H       -1.0730  -1.0133  1.6937
H       1.3047  -0.6161  -2.1850
H       1.1405  1.1155  -1.7388
H       3.4372  0.2246  -1.3680
H       2.7156  1.3966  -0.2617
H       2.9066  -1.4544  0.4176
H       3.6801  -0.1531  1.2786
H       1.3498  -1.0309  1.9851
H       1.5496  0.6782  2.2517
H       -1.3632  -0.6691  -2.0707
