27

Co      0.1111  0.0732  0.0050
Cl      -0.0096  -2.2677  -0.2072
Cl      -0.0099  2.1668  0.1972
N       -1.4596  0.1849  -1.4008
N       -1.4596  -0.2002  1.4058
N       1.3590  0.1636  -1.3339
N       1.3589  -0.1785  1.3390
C       -2.7625  0.3699  -0.6699
C       -2.7627  -0.3692  0.6648
C       2.6792  0.3669  -0.6710
C       2.6793  -0.3658  0.6661
H       -1.3584  0.9420  -2.0458
H       -2.8882  1.4302  -0.5231
H       -3.5935  0.0132  -1.2660
H       -3.5934  -0.0222  1.2611
H       -2.8888  -1.4295  0.5079
H       -1.5182  0.5846  2.0494
H       -1.3033  -1.0435  1.9393
H       1.3507  -0.6859  -1.8583
H       1.1768  0.9324  -1.9513
H       3.4761  0.0105  -1.3001
H       2.8051  1.4329  -0.5221
H       2.8059  -1.4318  0.5070
H       3.4761  -0.0191  1.2952
H       1.1214  -1.0335  1.8450
H       1.3906  0.5900  1.9900
H       -1.4780  -0.6809  -1.9178
