27

Co      0.0736  0.0732  0.0050
Cl      -0.0096  -2.3823  -0.2177
Cl      -0.0099  2.2814  0.2077
N       -1.3031  0.1651  -1.2347
N       -1.3031  -0.1804  1.2396
N       1.2639  0.1643  -1.3180
N       1.2639  -0.1792  1.3231
C       -2.8291  0.3983  -0.7065
C       -2.8293  -0.3976  0.7014
C       2.7458  0.3884  -0.7213
C       2.7460  -0.3873  0.7163
H       -1.4568  0.8621  -2.0302
H       -2.8470  1.4675  -0.5824
H       -3.5286  0.1457  -1.5244
H       -3.5218  -0.1547  1.5263
H       -2.8476  -1.4710  0.5673
H       -1.6942  0.5430  1.9542
H       -1.4017  -0.9637  1.9237
H       1.6223  -0.6101  -1.9440
H       1.3981  0.9004  -2.0655
H       3.4796  0.1362  -1.4902
H       2.7434  1.4675  -0.6019
H       2.7442  -1.4664  0.5868
H       3.4795  -0.1448  1.4853
H       1.3427  -1.0014  1.9591
H       1.6622  0.5143  2.0757
H       -1.6608  -0.6393  -1.8225
