27

Co      0.0000  0.0732  0.0050
Cl      0.0002  -2.2734  -0.2184
Cl      -0.0001  2.1724  0.2084
N       -1.3785  0.1321  -1.3066
N       -1.4963  -0.1474  1.4220
N       1.4963  0.1321  -1.4170
N       1.3785  -0.1469  1.3116
C       -2.6783  0.3967  -0.6276
C       -2.7522  -0.4181  0.6520
C       2.7520  0.4187  -0.6571
C       2.6786  -0.3955  0.6227
H       -1.2164  0.8481  -1.9858
H       -2.7114  1.4514  -0.4038
H       -3.4966  0.1627  -1.2843
H       -3.6292  -0.1570  1.2205
H       -2.7857  -1.4728  0.4402
H       -1.5928  0.6823  1.9754
H       -1.3085  -0.9202  2.0339
H       1.5526  -0.7789  -1.8434
H       1.3638  0.8184  -2.1406
H       3.6292  0.1476  -1.2255
H       2.7851  1.4735  -0.4560
H       2.7123  -1.4503  0.3893
H       3.4965  -0.1709  1.2795
H       1.1612  -0.9489  1.8796
H       1.4452  0.6609  1.9088
H       -1.4054  -0.7565  -1.7775
