27

Co      0.1111  -0.0092  0.0583
Cl      -0.0096  -2.2700  -0.2077
Cl      -0.0099  2.2762  0.2017
N       -1.4111  0.1857  -1.2970
N       -1.4308  -0.1919  1.3522
N       1.4283  0.1644  -1.3406
N       1.2122  -0.1702  1.1749
C       -2.8758  0.4132  -0.7111
C       -2.8760  -0.4039  0.6853
C       2.8661  0.4323  -0.7417
C       2.7190  -0.3784  0.6571
H       -1.1929  0.9443  -1.9053
H       -2.9954  1.4724  -0.5551
H       -3.6096  0.0759  -1.4465
H       -3.6317  -0.1153  1.4184
H       -2.9532  -1.4612  0.5023
H       -1.4690  0.6461  1.9091
H       -1.2854  -0.9706  1.9675
H       1.4401  -0.6913  -1.8493
H       1.1586  0.9052  -1.9655
H       3.6248  0.0586  -1.4216
H       2.9860  1.5014  -0.6056
H       2.7966  -1.4414  0.4498
H       3.3818  -0.1269  1.5114
H       0.9563  -0.9900  1.7185
H       1.1941  0.6294  1.7834
H       -1.4201  -0.6673  -1.8425
