27

Co      0.0000  0.0000  0.0000
Cl      0.0002  -2.2065  -0.2021
Cl      -0.0001  2.2065  0.2022
N       -1.2947  0.1865  -1.2888
N       -1.2947  -0.1866  1.2887
N       1.2947  0.1808  -1.2887
N       1.2946  -0.1805  1.2888
C       -2.8091  0.3514  -0.7194
C       -2.8093  -0.3507  0.7193
C       2.8092  0.3513  -0.7195
C       2.8093  -0.3502  0.7196
H       -1.3232  0.9503  -1.9810
H       -2.6220  1.4278  -0.5529
H       -3.7435  0.2297  -1.2724
H       -3.7367  -0.2286  1.2793
H       -2.6227  -1.4313  0.5529
H       -1.3721  0.6343  1.8683
H       -1.3236  -0.9509  1.9805
H       1.3847  -0.6349  -1.8620
H       1.3234  0.9444  -1.9868
H       3.7435  0.2349  -1.2725
H       2.6165  1.4377  -0.5479
H       2.6173  -1.4366  0.5479
H       3.7435  -0.2334  1.2727
H       1.3236  -0.9445  1.9865
H       1.3842  0.6350  1.8624
H       -1.3791  -0.6347  -1.8680
