27

Co      0.1111  0.0640  0.0633
Cl      -0.0096  -2.3849  -0.2320
Cl      -0.0099  2.2901  0.2159
N       -1.3938  0.1278  -1.2969
N       -1.4135  -0.1492  1.3571
N       1.4109  0.1121  -1.3404
N       1.1949  -0.1331  1.1798
C       -2.8167  0.4526  -0.6855
C       -2.8170  -0.4433  0.6547
C       2.8070  0.4716  -0.7161
C       2.6599  -0.4178  0.6265
H       -1.1951  0.7790  -2.0338
H       -2.8301  1.5061  -0.4644
H       -3.5897  0.2250  -1.4155
H       -3.6118  -0.2745  1.3824
H       -2.7879  -1.4949  0.3965
H       -1.5112  0.6904  1.9014
H       -1.2320  -0.9063  1.9899
H       1.4363  -0.8316  -1.7160
H       1.1608  0.7455  -2.0884
H       3.6048  0.2020  -1.3907
H       2.8263  1.5295  -0.5206
H       2.6369  -1.4695  0.3497
H       3.3618  -0.2805  1.4754
H       0.9029  -0.9313  1.7353
H       1.2307  0.6738  1.7814
H       -1.4219  -0.8076  -1.7035
