27

Co      0.0000  0.0000  0.0000
Cl      0.0002  -2.2471  -0.2191
Cl      -0.0001  2.2471  0.2192
N       -1.5791  0.1149  -1.4189
N       -1.5791  -0.1151  1.4188
N       1.5791  0.1205  -1.4188
N       1.5790  -0.1202  1.4188
C       -2.8070  0.4409  -0.6188
C       -2.8072  -0.4402  0.6188
C       2.8071  0.4409  -0.6190
C       2.8072  -0.4398  0.6190
H       -1.4117  0.8241  -2.1100
H       -2.7552  1.4900  -0.3440
H       -3.7098  0.2852  -1.2055
H       -3.7098  -0.2841  1.2056
H       -2.7558  -1.4893  0.3440
H       -1.6795  0.7637  1.8875
H       -1.4122  -0.8246  2.1095
H       1.6741  -0.7644  -1.8924
H       1.4119  0.8294  -2.1046
H       3.7098  0.2792  -1.2056
H       2.7609  1.4844  -0.3502
H       2.7617  -1.4833  0.3502
H       3.7097  -0.2777  1.2057
H       1.4121  -0.8295  2.1043
H       1.6736  0.7645  1.8928
H       -1.6797  -0.7641  -1.8871
