27

Co      0.0376  -0.0092  0.0583
Cl      0.0002  -2.3452  -0.2270
Cl      -0.0001  2.3514  0.2210
N       -1.3518  0.1510  -1.4069
N       -1.3715  -0.1572  1.4621
N       1.4082  0.1304  -1.3671
N       1.1922  -0.1363  1.2014
C       -2.7941  0.3782  -0.7036
C       -2.7943  -0.3689  0.6778
C       2.8678  0.4070  -0.7195
C       2.7207  -0.3532  0.6349
H       -1.6102  0.9001  -2.1669
H       -2.5338  1.4448  -0.4770
H       -3.6718  0.3833  -1.3912
H       -3.6872  -0.4226  1.3699
H       -2.4915  -1.4336  0.4243
H       -1.6398  0.6310  2.0806
H       -1.7027  -0.9264  2.2290
H       1.6562  -0.7056  -1.8990
H       1.6347  0.8225  -2.1920
H       3.7361  0.3750  -1.4007
H       2.6280  1.4779  -0.5087
H       2.4387  -1.4179  0.3529
H       3.4930  -0.4433  1.4905
H       1.4324  -0.9072  1.9450
H       1.4103  0.6438  1.8331
H       -1.5977  -0.6522  -2.0140
