27

Co      0.0376  0.0640  0.0633
Cl      0.0002  -2.2647  -0.2102
Cl      -0.0001  2.1699  0.1941
N       -1.4302  0.1843  -1.4149
N       -1.4499  -0.2057  1.4751
N       1.4866  0.1581  -1.3751
N       1.2706  -0.1791  1.2145
C       -2.7208  0.3693  -0.6901
C       -2.7210  -0.3600  0.6593
C       2.7945  0.3981  -0.7060
C       2.6474  -0.3443  0.6164
H       -1.2829  0.9512  -2.0292
H       -2.8606  1.4327  -0.5617
H       -3.5579  -0.0144  -1.2629
H       -3.5800  -0.0351  1.2298
H       -2.8183  -1.4172  0.4938
H       -1.5207  0.5595  2.1463
H       -1.3199  -1.0785  1.9853
H       1.4955  -0.7300  -1.8277
H       1.3075  0.8680  -2.0599
H       3.6221  -0.0171  -1.2724
H       2.9492  1.4672  -0.5878
H       2.7598  -1.4072  0.4168
H       3.3791  -0.0614  1.3571
H       1.0496  -1.0537  1.7069
H       1.2900  0.5722  1.8931
H       -1.4314  -0.6766  -1.9484
