27

Co      0.0000  0.0732  0.0050
Cl      0.0002  -2.2626  -0.2184
Cl      -0.0001  2.1617  0.2084
N       -1.3433  0.1737  -1.3143
N       -1.3433  -0.1890  1.3192
N       1.3433  0.1736  -1.3142
N       1.3432  -0.1885  1.3193
C       -2.7901  0.4108  -0.6733
C       -2.7903  -0.4101  0.6682
C       2.7901  0.4107  -0.6734
C       2.7903  -0.4096  0.6684
H       -1.3717  0.7206  -2.2396
H       -2.6822  1.4612  -0.3966
H       -3.6094  0.3042  -1.3891
H       -3.6094  -0.3132  1.3842
H       -2.6828  -1.4647  0.3815
H       -1.2163  0.8046  1.6288
H       -1.3166  -0.8221  2.1330
H       1.1761  -0.9011  -1.4968
H       1.3719  0.7203  -2.2332
H       3.6094  0.3105  -1.3892
H       2.6823  1.4655  -0.3973
H       2.6831  -1.4644  0.3821
H       3.6093  -0.3190  1.3843
H       1.3099  -0.8214  2.1268
H       1.2160  0.8053  1.6285
H       -1.1761  -0.9009  -1.4972
