27

Co      0.0000  -0.0732  -0.0050
Cl      0.0002  -2.1802  -0.2028
Cl      -0.0001  2.2812  0.2130
N       -1.4758  0.1474  -1.3581
N       -1.4758  -0.1324  1.3529
N       1.4758  0.1474  -1.3580
N       1.4757  -0.1319  1.3530
C       -2.8541  0.4052  -0.5686
C       -2.8544  -0.4045  0.5736
C       2.8542  0.4051  -0.5687
C       2.8544  -0.4040  0.5738
H       -1.3141  0.9441  -1.9543
H       -2.9844  1.4513  -0.3561
H       -3.6837  0.0469  -1.1675
H       -3.6837  -0.0357  1.1727
H       -2.9851  -1.4506  0.3713
H       -1.5652  0.7575  1.8186
H       -1.3701  -0.8436  2.0599
H       1.6059  -0.6622  -1.9492
H       1.3143  0.9438  -1.9545
H       3.6837  0.0465  -1.1634
H       2.9888  1.4513  -0.3567
H       2.9897  -1.4502  0.3719
H       3.6837  -0.0348  1.1686
H       1.3700  -0.8428  2.0602
H       1.5649  0.7582  1.8183
H       -1.6059  -0.6619  -1.9496
