27

Co      0.1111  0.0732  0.0050
Cl      -0.0096  -2.3236  -0.2097
Cl      -0.0099  2.2226  0.1997
N       -1.4632  0.1854  -1.2968
N       -1.4632  -0.2007  1.3017
N       1.3625  0.1641  -1.2299
N       1.3625  -0.1790  1.2349
C       -2.8209  0.3709  -0.6627
C       -2.8211  -0.3702  0.6576
C       2.7375  0.3679  -0.6639
C       2.7377  -0.3668  0.6589
H       -1.3512  0.9235  -1.9643
H       -2.9824  1.4312  -0.5236
H       -3.5996  -0.0145  -1.3208
H       -3.5996  0.0055  1.3159
H       -2.9831  -1.4305  0.5085
H       -1.5069  0.5959  1.9289
H       -1.2961  -1.0251  1.8578
H       1.3394  -0.6972  -1.7379
H       1.1696  0.9140  -1.8698
H       3.4822  -0.0171  -1.3549
H       2.8993  1.4339  -0.5226
H       2.9002  -1.4328  0.5075
H       3.4822  0.0086  1.3500
H       1.1142  -1.0150  1.7635
H       1.3793  0.6013  1.8695
H       -1.4667  -0.6922  -1.7973
