27

Co      -0.0736  0.0092  -0.0583
Cl      0.0101  -2.2394  -0.2161
Cl      0.0097  2.2333  0.2223
N       -1.5859  0.0710  -1.3634
N       -1.5662  -0.0650  1.3081
N       1.5073  0.0717  -1.1696
N       1.7232  -0.0653  1.3352
C       -2.7242  0.3840  -0.5615
C       -2.7244  -0.3919  0.5872
C       2.7340  0.3717  -0.5174
C       2.8814  -0.4234  0.6022
H       -1.3901  0.9468  -1.8705
H       -2.6519  1.4343  -0.2901
H       -3.6695  0.2451  -1.0930
H       -3.6473  -0.2035  1.1213
H       -2.6954  -1.4440  0.3428
H       -1.6688  0.6886  1.9903
H       -1.2984  -0.9216  1.8074
H       1.6094  -0.6788  -1.8677
H       1.3019  0.9374  -1.6877
H       3.5860  0.2619  -1.1863
H       2.6820  1.4122  -0.2203
H       2.8731  -1.4699  0.3761
H       3.8289  -0.1904  1.0969
H       1.5111  -0.8528  1.9340
H       1.8543  0.7409  1.9343
H       -1.7182  -0.6682  -2.0562
