27

Co      0.0000  0.0000  0.0000
Cl      0.0002  -2.3375  -0.2239
Cl      -0.0001  2.3375  0.2240
N       -1.3366  0.1349  -1.2131
N       -1.4544  -0.1350  1.3234
N       1.4545  0.1348  -1.3234
N       1.3366  -0.1345  1.2130
C       -2.6833  0.3977  -0.6179
C       -2.7572  -0.4191  0.6473
C       2.7570  0.4198  -0.6474
C       2.6835  -0.3966  0.6181
H       -1.1333  0.8721  -1.8593
H       -2.7415  1.4524  -0.3940
H       -3.4547  0.1481  -1.3313
H       -3.5872  -0.1323  1.2725
H       -2.8158  -1.4738  0.4456
H       -1.5159  0.7496  1.7947
H       -1.2810  -0.8432  2.0134
H       1.5161  -0.7502  -1.7939
H       1.2808  0.8424  -2.0141
H       3.5872  0.1330  -1.2725
H       2.8153  1.4745  -0.4462
H       2.7425  -1.4513  0.3947
H       3.4546  -0.1462  1.3316
H       1.1336  -0.8719  1.8592
H       1.3683  0.7282  1.7281
H       -1.3688  -0.7278  -1.7281
