27

Co      0.1111  -0.0092  0.0583
Cl      -0.0096  -2.2090  -0.2164
Cl      -0.0099  2.2152  0.2104
N       -1.4456  0.1372  -1.2840
N       -1.4653  -0.1435  1.3392
N       1.4628  0.1216  -1.3275
N       1.2467  -0.1274  1.1619
C       -2.7640  0.4171  -0.6449
C       -2.7643  -0.4078  0.6192
C       2.7543  0.4362  -0.6756
C       2.6072  -0.3823  0.5910
H       -1.2640  0.8441  -1.9679
H       -2.8336  1.4749  -0.4392
H       -3.5782  0.1370  -1.2889
H       -3.6003  -0.1763  1.2608
H       -2.7913  -1.4594  0.3864
H       -1.5505  0.7280  1.8306
H       -1.3565  -0.8704  2.0301
H       1.5160  -0.7732  -1.7764
H       1.2297  0.8107  -2.0225
H       3.5934  0.1140  -1.2641
H       2.8297  1.4940  -0.4954
H       2.6404  -1.4340  0.3396
H       3.3504  -0.1823  1.3539
H       1.0274  -0.8954  1.7755
H       1.2700  0.7113  1.7105
H       -1.5016  -0.7492  -1.7640
