27

Co      -0.0376  0.0092  -0.0583
Cl      0.0002  -2.3059  -0.2186
Cl      -0.0001  2.2999  0.2249
N       -1.5617  0.1083  -1.2673
N       -1.5421  -0.1023  1.2120
N       1.5054  0.1343  -1.3071
N       1.7213  -0.1279  1.4727
C       -2.8654  0.4411  -0.5920
C       -2.8656  -0.4490  0.6177
C       2.7918  0.4121  -0.5763
C       2.9392  -0.4638  0.6610
H       -1.3891  0.7946  -1.9950
H       -2.8382  1.4871  -0.3079
H       -3.6929  0.2812  -1.2803
H       -3.6707  -0.2397  1.3087
H       -2.8818  -1.5011  0.3606
H       -1.5992  0.8025  1.6417
H       -1.2974  -0.7694  1.9319
H       1.5844  -0.7291  -1.8275
H       1.3649  0.8772  -1.9647
H       3.6286  0.2831  -1.2711
H       2.7498  1.4526  -0.2830
H       2.9409  -1.5104  0.4389
H       3.8715  -0.2116  1.1816
H       1.5676  -0.7926  2.2110
H       1.8294  0.7912  1.8942
H       -1.6486  -0.7820  -1.7076
