27

Co      0.0000  -0.0732  -0.0050
Cl      0.0002  -2.3163  -0.2134
Cl      -0.0001  2.4173  0.2236
N       -1.5831  0.1703  -1.4375
N       -1.5831  -0.1553  1.4323
N       1.5831  0.1702  -1.4374
N       1.5830  -0.1548  1.4324
C       -2.8036  0.4131  -0.6318
C       -2.8039  -0.4124  0.6369
C       2.8037  0.4130  -0.6320
C       2.8038  -0.4119  0.6371
H       -1.0496  0.9962  -1.8797
H       -2.9345  1.4547  -0.3779
H       -3.6819  0.0885  -1.1803
H       -3.6886  -0.0773  1.1787
H       -2.9351  -1.4540  0.3930
H       -1.2552  0.8158  1.7937
H       -1.1056  -0.8957  1.9852
H       1.2890  -0.7205  -1.9242
H       1.0498  0.9959  -1.8799
H       3.6818  0.0881  -1.1804
H       2.9346  1.4547  -0.3785
H       2.9354  -1.4536  0.3937
H       3.6818  -0.0765  1.1856
H       1.1055  -0.8949  1.9856
H       1.2481  0.8165  1.7933
H       -1.2891  -0.7202  -1.9246
