27

Co      0.0000  0.0732  0.0050
Cl      0.0002  -2.3399  -0.2210
Cl      -0.0001  2.2390  0.2110
N       -1.3909  0.1488  -1.3489
N       -1.3909  -0.1641  1.3538
N       1.3909  0.1488  -1.3488
N       1.3909  -0.1636  1.3539
C       -2.8475  0.3846  -0.7010
C       -2.8477  -0.3838  0.6959
C       2.8476  0.3845  -0.7011
C       2.8477  -0.3834  0.6961
H       -1.4524  0.8320  -2.1419
H       -2.5649  1.4554  -0.4797
H       -3.8424  0.3575  -1.2227
H       -3.8355  -0.3665  1.2246
H       -2.5655  -1.4589  0.4646
H       -1.5274  0.6389  1.9501
H       -1.3973  -0.9336  2.0354
H       1.4940  -0.7354  -1.8181
H       1.4526  0.8317  -2.1422
H       3.8423  0.3571  -1.2228
H       2.5650  1.4596  -0.4804
H       2.5658  -1.4585  0.4653
H       3.8423  -0.3656  1.2179
H       1.3972  -0.9328  2.0358
H       1.5339  0.6396  1.9498
H       -1.4940  -0.7352  -1.8185
