27

Co      0.0000  0.0000  0.0000
Cl      0.0002  -2.2172  -0.2021
Cl      -0.0001  2.2173  0.2022
N       -1.3270  0.1937  -1.3749
N       -1.3270  -0.1938  1.3748
N       1.3270  0.1880  -1.3749
N       1.3269  -0.1877  1.3749
C       -2.8019  0.3478  -0.7265
C       -2.8021  -0.3471  0.7265
C       2.8020  0.3477  -0.7267
C       2.8021  -0.3466  0.7267
H       -1.3663  0.9791  -2.0420
H       -2.5969  1.4242  -0.5600
H       -3.7758  0.2369  -1.2329
H       -3.7690  -0.2358  1.2398
H       -2.5975  -1.4277  0.5601
H       -1.4116  0.6128  1.9760
H       -1.3667  -0.9796  2.0415
H       1.4242  -0.6134  -1.9697
H       1.3665  0.9731  -2.0478
H       3.7758  0.2421  -1.2330
H       2.5914  1.4341  -0.5550
H       2.5922  -1.4330  0.5551
H       3.7757  -0.2405  1.2332
H       1.3666  -0.9732  2.0475
H       1.4237  0.6135  1.9700
H       -1.4186  -0.6131  -1.9757
