27

Co      0.0376  -0.0092  0.0583
Cl      0.0002  -2.2142  -0.2052
Cl      -0.0001  2.2204  0.1991
N       -1.4474  0.1913  -1.4523
N       -1.3493  -0.1976  1.3970
N       1.3860  0.1652  -1.3020
N       1.2878  -0.1710  1.2468
C       -2.7644  0.3663  -0.7149
C       -2.6910  -0.3349  0.6597
C       2.7644  0.3730  -0.7013
C       2.6910  -0.3413  0.6462
H       -1.6284  0.9744  -2.1509
H       -2.8243  1.4427  -0.6390
H       -3.6143  0.0264  -1.2917
H       -3.4971  -0.0805  1.3293
H       -2.7084  -1.4052  0.5347
H       -1.7462  0.5057  2.1469
H       -1.5737  -1.0301  2.0584
H       1.7682  -0.5804  -1.9596
H       1.5057  0.9207  -2.0270
H       3.5460  0.0385  -1.3601
H       2.8392  1.4552  -0.6135
H       2.7235  -1.4173  0.5093
H       3.4355  -0.0921  1.3910
H       1.4506  -0.9759  1.9347
H       1.6695  0.5406  1.9600
H       -1.8514  -0.5490  -2.1466
