27

Co      0.0376  -0.0092  0.0583
Cl      0.0002  -2.3344  -0.2270
Cl      -0.0001  2.3406  0.2210
N       -1.4164  0.1420  -1.3158
N       -1.4361  -0.1483  1.3709
N       1.4728  0.1215  -1.2759
N       1.2568  -0.1273  1.1103
C       -2.7201  0.4096  -0.6523
C       -2.7203  -0.4003  0.6265
C       2.7938  0.4385  -0.6682
C       2.6467  -0.3847  0.5836
H       -1.2223  0.8684  -1.9701
H       -2.7895  1.4674  -0.4564
H       -3.5440  0.1171  -1.2818
H       -3.5661  -0.1565  1.2537
H       -2.7473  -1.4520  0.4037
H       -1.5112  0.7110  1.8868
H       -1.3148  -0.8947  2.0323
H       1.5208  -0.7857  -1.7052
H       1.2469  0.7909  -1.9953
H       3.6082  0.1088  -1.2913
H       2.8838  1.4963  -0.4881
H       2.6944  -1.4363  0.3323
H       3.3652  -0.1772  1.3810
H       1.0446  -0.8756  1.7483
H       1.2749  0.7238  1.6393
H       -1.4623  -0.7322  -1.8203
