27

Co      0.0376  0.0640  0.0633
Cl      0.0002  -2.3291  -0.2295
Cl      -0.0001  2.2343  0.2133
N       -1.4428  0.1533  -1.4001
N       -1.4625  -0.1747  1.4603
N       1.4992  0.1328  -1.3603
N       1.2832  -0.1537  1.1997
C       -2.6468  0.3568  -0.7242
C       -2.6471  -0.3475  0.6933
C       2.7205  0.3856  -0.7401
C       2.5734  -0.3318  0.6504
H       -1.3913  0.8774  -2.0919
H       -2.4432  1.4231  -0.4738
H       -3.5878  0.3400  -1.3065
H       -3.6099  -0.3895  1.2734
H       -2.4010  -1.4077  0.4059
H       -1.3418  0.6626  2.0213
H       -1.4282  -1.0047  2.0480
H       1.3111  -0.8332  -1.7083
H       1.4158  0.7998  -2.1170
H       3.6521  0.3317  -1.3203
H       2.5332  1.4520  -0.5055
H       2.3438  -1.3920  0.3346
H       3.4090  -0.4102  1.4050
H       1.1579  -0.9856  1.7640
H       1.1055  0.6754  1.7737
H       -1.2526  -0.7798  -1.8234
