27

Co      0.0000  0.0640  0.0633
Cl      0.0002  -2.3313  -0.2128
Cl      -0.0001  2.2365  0.1967
N       -1.4119  0.1907  -1.3821
N       -1.3137  -0.2121  1.3318
N       1.4119  0.1850  -1.3820
N       1.3137  -0.2060  1.3319
C       -2.8899  0.3605  -0.7567
C       -2.8166  -0.3292  0.6964
C       2.8900  0.3605  -0.7568
C       2.8165  -0.3287  0.6966
H       -1.4575  0.9112  -2.1205
H       -2.7243  1.4401  -0.6274
H       -3.8695  0.1837  -1.2355
H       -3.7522  -0.2479  1.2680
H       -2.6084  -1.4068  0.5080
H       -1.4109  0.5331  2.0288
H       -1.3472  -1.0679  1.9220
H       1.4812  -0.6695  -1.8912
H       1.4577  0.9053  -2.1264
H       3.8694  0.1890  -1.2356
H       2.7188  1.4499  -0.6224
H       2.6031  -1.4120  0.5030
H       3.7589  -0.2527  1.2614
H       1.3471  -1.0615  1.9280
H       1.4230  0.5338  2.0229
H       -1.4756  -0.6723  -1.8972
