27

Co      0.0000  0.0000  0.0000
Cl      0.0002  -2.2709  -0.2214
Cl      -0.0001  2.2709  0.2215
N       -1.2773  0.1362  -1.2912
N       -1.2773  -0.1363  1.2911
N       1.2774  0.1361  -1.2911
N       1.2773  -0.1359  1.2912
C       -2.7500  0.3907  -0.6913
C       -2.7503  -0.3900  0.6912
C       2.7501  0.3907  -0.6914
C       2.7503  -0.3896  0.6915
H       -1.2976  0.8355  -2.0564
H       -2.4567  1.4615  -0.4546
H       -3.7235  0.3838  -1.2389
H       -3.7167  -0.3827  1.2459
H       -2.4574  -1.4650  0.4547
H       -1.3941  0.7266  1.7950
H       -1.2980  -0.8361  2.0559
H       1.4011  -0.7273  -1.7943
H       1.2978  0.8352  -2.0567
H       3.7235  0.3835  -1.2391
H       2.4568  1.4658  -0.4553
H       2.4577  -1.4647  0.4553
H       3.7235  -0.3819  1.2392
H       1.2979  -0.8353  2.0563
H       1.4006  0.7274  1.7947
H       -1.4011  -0.7270  -1.7947
