27

Co      0.0000  0.0092  -0.0583
Cl      0.0002  -2.3167  -0.2186
Cl      -0.0001  2.3106  0.2249
N       -1.5725  0.0792  -1.3601
N       -1.6706  -0.0732  1.4152
N       1.5725  0.0848  -1.3600
N       1.6706  -0.0783  1.4152
C       -2.8281  0.4097  -0.5846
C       -2.9019  -0.4397  0.6398
C       2.8281  0.4097  -0.5847
C       2.9019  -0.4393  0.6400
H       -1.3403  0.9615  -1.8443
H       -2.6997  1.4558  -0.2796
H       -3.7196  0.3521  -1.2295
H       -3.8300  -0.2958  1.1990
H       -2.8169  -1.4918  0.3839
H       -1.7899  0.6953  2.0672
H       -1.3959  -0.9068  1.9359
H       1.6864  -0.6561  -2.0721
H       1.3405  0.9668  -1.8456
H       3.7195  0.3395  -1.2297
H       2.7054  1.4502  -0.2858
H       2.8228  -1.4859  0.3902
H       3.8299  -0.2827  1.1991
H       1.4025  -0.9117  1.9373
H       1.7840  0.6960  2.0725
H       -1.6920  -0.6527  -2.0669
