27

Co      0.0000  -0.0640  -0.0633
Cl      0.0002  -2.1832  -0.1998
Cl      -0.0001  2.2782  0.2161
N       -1.4696  0.1634  -1.3133
N       -1.5677  -0.1422  1.3634
N       1.4696  0.1633  -1.3132
N       1.5677  -0.1417  1.3634
C       -2.7830  0.3898  -0.6096
C       -2.8568  -0.4198  0.6699
C       2.7831  0.3898  -0.6098
C       2.8568  -0.4194  0.6701
H       -1.2908  0.9802  -1.8825
H       -2.8232  1.4415  -0.3726
H       -3.5942  0.1646  -1.2858
H       -3.7046  -0.0982  1.2604
H       -2.9404  -1.4776  0.4921
H       -1.6014  0.7704  1.7928
H       -1.4020  -0.8246  2.0801
H       1.5439  -0.6352  -1.9234
H       1.2910  0.9799  -1.8828
H       3.5942  0.1642  -1.2860
H       2.8233  1.4415  -0.3732
H       2.9407  -1.4772  0.4927
H       3.7045  -0.0973  1.2605
H       1.4019  -0.8238  2.0805
H       1.6012  0.7711  1.7925
H       -1.5439  -0.6319  -1.9238
