27

Co      -0.0736  0.0000  0.0000
Cl      0.0101  -2.2951  -0.2271
Cl      0.0097  2.2951  0.2272
N       -1.5786  0.1031  -1.3775
N       -1.5786  -0.1032  1.3774
N       1.6179  0.1037  -1.2940
N       1.6178  -0.1035  1.2940
C       -2.6379  0.4675  -0.5749
C       -2.6382  -0.4668  0.5749
C       2.7214  0.4773  -0.5603
C       2.7215  -0.4762  0.5604
H       -0.9464  0.8065  -1.9360
H       -2.8978  1.5077  -0.3330
H       -3.5094  0.0198  -1.0735
H       -3.5161  -0.0187  1.0669
H       -2.8984  -1.5028  0.3330
H       -1.4833  0.8371  1.7628
H       -0.9468  -0.8070  1.9355
H       1.5153  -0.8671  -1.6402
H       1.0054  0.7677  -1.9012
H       3.5584  0.0285  -1.1080
H       3.0016  1.5077  -0.3147
H       3.0024  -1.5066  0.3147
H       3.5583  -0.0269  1.1081
H       1.0056  -0.7677  1.9009
H       1.5148  0.8672  1.6406
H       -1.4768  -0.8375  -1.7625
