27

Co      0.1111  0.0640  0.0633
Cl      -0.0096  -2.2595  -0.2215
Cl      -0.0099  2.1647  0.2053
N       -1.4034  0.1254  -1.3068
N       -1.4230  -0.1469  1.3670
N       1.4205  0.1098  -1.3504
N       1.2045  -0.1308  1.1897
C       -2.8189  0.4551  -0.6855
C       -2.8192  -0.4458  0.6547
C       2.8093  0.4742  -0.7161
C       2.6622  -0.4203  0.6265
H       -1.2073  0.7767  -2.0463
H       -2.8251  1.5087  -0.4594
H       -3.5993  0.2375  -1.4055
H       -3.6214  -0.2870  1.3724
H       -2.7829  -1.4975  0.3915
H       -1.5285  0.6927  1.9089
H       -1.2443  -0.9040  2.0024
H       1.4535  -0.8338  -1.7234
H       1.1730  0.7433  -2.1008
H       3.6145  0.2145  -1.3807
H       2.8213  1.5320  -0.5156
H       2.6319  -1.4720  0.3447
H       3.3715  -0.2930  1.4654
H       0.9151  -0.9290  1.7478
H       1.2480  0.6760  1.7888
H       -1.4392  -0.8098  -1.7110
