27

Co      0.0000  -0.0092  0.0583
Cl      0.0002  -2.2756  -0.2190
Cl      -0.0001  2.2818  0.2129
N       -1.4900  0.1371  -1.2879
N       -1.3919  -0.1434  1.2326
N       1.4901  0.1371  -1.2878
N       1.3918  -0.1429  1.2326
C       -2.8104  0.4241  -0.6602
C       -2.7370  -0.3927  0.6050
C       2.8104  0.4241  -0.6603
C       2.7370  -0.3923  0.6052
H       -1.2826  0.8378  -1.9746
H       -2.9007  1.4819  -0.4746
H       -3.6242  0.1052  -1.2918
H       -3.5138  -0.1593  1.3226
H       -2.7848  -1.4443  0.3704
H       -1.4386  0.7090  1.7562
H       -1.2278  -0.8936  1.8821
H       1.5370  -0.7495  -1.7555
H       1.2828  0.8375  -1.9748
H       3.6242  0.1048  -1.2920
H       2.9008  1.4819  -0.4753
H       2.7851  -1.4440  0.3710
H       3.5137  -0.1584  1.3228
H       1.2278  -0.8928  1.8825
H       1.4383  0.7098  1.7558
H       -1.5370  -0.7523  -1.7559
