27

Co      0.0000  0.0732  0.0050
Cl      0.0002  -2.3823  -0.2177
Cl      -0.0001  2.2814  0.2077
N       -1.2663  0.1680  -1.2415
N       -1.3841  -0.1833  1.3569
N       1.3841  0.1623  -1.3519
N       1.2662  -0.1772  1.2465
C       -2.7438  0.3964  -0.6865
C       -2.8177  -0.4178  0.7109
C       2.8175  0.4184  -0.7161
C       2.7440  -0.3953  0.6817
H       -1.0541  0.9115  -1.8702
H       -2.8342  1.4525  -0.5098
H       -3.4477  0.1026  -1.4760
H       -3.5802  -0.0969  1.4121
H       -2.9085  -1.4781  0.5462
H       -1.4264  0.6300  1.9517
H       -1.1463  -0.9836  1.9183
H       1.3918  -0.7265  -1.8140
H       1.2016  0.8761  -2.0307
H       3.5802  0.0931  -1.4172
H       2.9024  1.4844  -0.5564
H       2.8296  -1.4613  0.4897
H       3.4476  -0.1163  1.4712
H       0.9989  -1.0067  1.7697
H       1.2844  0.6086  1.8794
H       -1.2390  -0.7042  -1.7538
