27

Co      0.0000  0.0732  0.0050
Cl      0.0002  -2.2677  -0.2072
Cl      -0.0001  2.1668  0.1972
N       -1.3897  0.2300  -1.3807
N       -1.3897  -0.2453  1.3856
N       1.3897  0.2243  -1.3806
N       1.3897  -0.2392  1.3857
C       -2.7336  0.3298  -0.6706
C       -2.7338  -0.3291  0.6655
C       2.7336  0.3298  -0.6707
C       2.7338  -0.3287  0.6657
H       -1.4768  0.8730  -2.2078
H       -2.7667  1.3901  -0.4867
H       -3.5925  0.0597  -1.2637
H       -3.5925  -0.0687  1.2588
H       -2.7673  -1.3894  0.4715
H       -1.2306  0.6861  1.8025
H       -1.4217  -0.9745  2.1013
H       1.1960  -0.7826  -1.6649
H       1.4770  0.8671  -2.2070
H       3.5925  0.0716  -1.2638
H       2.7612  1.3958  -0.4817
H       2.7620  -1.3947  0.4666
H       3.5924  -0.0801  1.2589
H       1.4150  -0.9681  2.1006
H       1.2359  0.6868  1.7966
H       -1.1904  -0.7824  -1.6709
