27

Co      0.0000  -0.0732  -0.0050
Cl      0.0002  -2.2467  -0.2054
Cl      -0.0001  2.3478  0.2156
N       -1.5817  0.1612  -1.3433
N       -1.5817  -0.1462  1.3382
N       1.5817  0.1611  -1.3433
N       1.5816  -0.1457  1.3382
C       -2.8642  0.4094  -0.6101
C       -2.8645  -0.4087  0.6151
C       2.8643  0.4094  -0.6102
C       2.8645  -0.4083  0.6154
H       -1.2729  0.9900  -1.8470
H       -3.0456  1.4437  -0.3443
H       -3.5522  0.1097  -1.4215
H       -3.5589  -0.0985  1.4199
H       -3.0462  -1.4430  0.3594
H       -1.3703  0.7930  1.7461
H       -1.3288  -0.8896  1.9526
H       1.4041  -0.6976  -1.8767
H       1.2731  0.9897  -1.8472
H       3.5521  0.1093  -1.4217
H       3.0457  1.4438  -0.3449
H       3.0465  -1.4427  0.3601
H       3.5521  -0.0977  1.4269
H       1.3288  -0.8888  1.9530
H       1.3632  0.7937  1.7458
H       -1.4041  -0.6974  -1.8771
