27

Co      0.0000  -0.0092  0.0583
Cl      0.0002  -2.2700  -0.2077
Cl      -0.0001  2.2762  0.2017
N       -1.4202  0.1816  -1.2731
N       -1.3221  -0.1879  1.2178
N       1.4203  0.1759  -1.2731
N       1.3221  -0.1818  1.2179
C       -2.8228  0.3707  -0.7009
C       -2.7494  -0.3393  0.6456
C       2.8228  0.3707  -0.7010
C       2.7494  -0.3389  0.6459
H       -1.5598  0.9320  -2.0045
H       -2.9288  1.4472  -0.6292
H       -3.5863  0.0022  -1.3807
H       -3.4691  -0.0563  1.4183
H       -2.8129  -1.4096  0.5250
H       -1.6905  0.5341  1.9342
H       -1.5050  -0.9878  1.9121
H       1.8013  -0.5746  -1.9279
H       1.5600  0.9261  -2.0104
H       3.5863  0.0074  -1.3808
H       2.9233  1.4528  -0.6243
H       2.8075  -1.4149  0.5200
H       3.4758  -0.0611  1.4116
H       1.5049  -0.9814  1.9181
H       1.7026  0.5348  1.9283
H       -1.7957  -0.5774  -1.9339
