27

Co      0.0000  0.0732  0.0050
Cl      0.0002  -2.3880  -0.2290
Cl      -0.0001  2.2870  0.2190
N       -1.3366  0.1273  -1.2105
N       -1.4544  -0.1426  1.3259
N       1.4545  0.1272  -1.3209
N       1.3366  -0.1421  1.2155
C       -2.6833  0.3977  -0.6204
C       -2.7572  -0.4191  0.6448
C       2.7570  0.4198  -0.6500
C       2.6835  -0.3966  0.6155
H       -1.1611  0.8216  -1.9123
H       -2.7415  1.4524  -0.4016
H       -3.4547  0.1431  -1.3338
H       -3.5872  -0.1374  1.2700
H       -2.8158  -1.4738  0.4380
H       -1.5361  0.7016  1.8603
H       -1.2532  -0.8937  1.9604
H       1.4959  -0.7982  -1.7283
H       1.3085  0.7919  -2.0672
H       3.5872  0.1280  -1.2750
H       2.8153  1.4745  -0.4538
H       2.7425  -1.4513  0.3871
H       3.4546  -0.1512  1.3290
H       1.1059  -0.9224  1.8061
H       1.3885  0.6802  1.7937
H       -1.3486  -0.7758  -1.6624
