27

Co      -0.0376  -0.0640  -0.0633
Cl      0.0002  -2.1996  -0.2110
Cl      -0.0001  2.2945  0.2274
N       -1.5648  0.0689  -1.3606
N       -1.5451  -0.0477  1.3002
N       1.5085  0.0949  -1.4004
N       1.7244  -0.0733  1.5610
C       -2.8137  0.4268  -0.5900
C       -2.8139  -0.4346  0.6208
C       2.7401  0.3978  -0.5743
C       2.8875  -0.4495  0.6641
H       -1.2889  0.9631  -1.8243
H       -2.6776  1.4728  -0.2799
H       -3.7133  0.3737  -1.2163
H       -3.6911  -0.3220  1.2497
H       -2.7211  -1.4868  0.3478
H       -1.6235  0.7595  1.8890
H       -1.2528  -0.8369  1.8672
H       1.6491  -0.5902  -2.2062
H       1.2647  1.0457  -1.8006
H       3.6490  0.3689  -1.2071
H       2.5892  1.4383  -0.2551
H       2.7802  -1.4961  0.4261
H       3.8919  -0.2873  1.1227
H       1.5295  -0.8601  2.1530
H       1.8537  0.7482  2.1416
H       -1.7133  -0.6431  -2.0863
