27

Co      -0.0736  0.0000  0.0000
Cl      0.0101  -2.3668  -0.2185
Cl      0.0097  2.3669  0.2186
N       -1.5912  0.1621  -1.4513
N       -1.5912  -0.1623  1.4512
N       1.6304  0.1572  -1.3678
N       1.6304  -0.1569  1.3679
C       -2.7070  0.3629  -0.5892
C       -2.7073  -0.3622  0.5891
C       2.7905  0.3727  -0.5746
C       2.7906  -0.3716  0.5746
H       -1.3507  0.9992  -1.9584
H       -2.9157  1.4015  -0.3559
H       -3.4907  0.0069  -1.2480
H       -3.4975  -0.0058  1.2414
H       -2.9164  -1.3965  0.3560
H       -1.4047  0.7041  1.9759
H       -1.3511  -0.9997  1.9579
H       1.4423  -0.7341  -1.8476
H       1.4097  0.9547  -1.9292
H       3.5398  0.0212  -1.2825
H       3.0139  1.4071  -0.3320
H       3.0147  -1.4060  0.3321
H       3.5397  -0.0196  1.2826
H       1.4099  -0.9548  1.9289
H       1.4418  0.7342  1.8480
H       -1.3982  -0.7044  -1.9755
