27

Co      0.0376  0.0640  0.0633
Cl      0.0002  -2.2539  -0.2102
Cl      -0.0001  2.1591  0.1941
N       -1.3562  0.1766  -1.3084
N       -1.3759  -0.1980  1.3686
N       1.4126  0.1504  -1.2686
N       1.1966  -0.1714  1.1080
C       -2.7347  0.3588  -0.6955
C       -2.7350  -0.3495  0.6647
C       2.8084  0.3877  -0.7114
C       2.6613  -0.3338  0.6218
H       -1.5395  0.9099  -2.0656
H       -2.8126  1.4353  -0.6136
H       -3.5158  0.0216  -1.3632
H       -3.5311  -0.0711  1.3368
H       -2.7703  -1.4198  0.5457
H       -1.8006  0.4904  2.1380
H       -1.5765  -1.0372  2.0217
H       1.7822  -0.6609  -1.8194
H       1.5641  0.8267  -2.0964
H       3.5800  0.0189  -1.3727
H       2.9012  1.4698  -0.6397
H       2.7118  -1.4098  0.4687
H       3.3370  -0.0974  1.4574
H       1.3062  -1.0125  1.7433
H       1.5766  0.5031  1.8848
H       -1.7181  -0.6075  -1.9401
