27

Co      0.0000  0.0000  0.0000
Cl      0.0002  -2.2172  -0.2021
Cl      -0.0001  2.2173  0.2022
N       -1.3671  0.1804  -1.3953
N       -1.3671  -0.1806  1.3952
N       1.3671  0.1747  -1.3952
N       1.3670  -0.1745  1.3952
C       -2.7757  0.4064  -0.7059
C       -2.7759  -0.4057  0.7059
C       2.7758  0.4064  -0.7060
C       2.7759  -0.4053  0.7061
H       -1.1553  0.9738  -1.9680
H       -2.8409  1.4625  -0.5302
H       -3.5559  0.1199  -1.3945
H       -3.5559  -0.1188  1.3946
H       -2.8416  -1.4660  0.5302
H       -1.3893  0.6476  1.9680
H       -1.1557  -0.9743  1.9675
H       1.3951  -0.6482  -1.9617
H       1.1555  0.9679  -1.9738
H       3.5559  0.1251  -1.3946
H       2.8354  1.4724  -0.5252
H       2.8362  -1.4713  0.5252
H       3.5558  -0.1236  1.3948
H       1.1556  -0.9679  1.9735
H       1.3946  0.6483  1.9620
H       -1.3895  -0.6480  -1.9677
