27

Co      0.0000  0.0000  0.0000
Cl      0.0002  -2.3560  -0.2185
Cl      -0.0001  2.3561  0.2186
N       -1.5287  0.1021  -1.3152
N       -1.5287  -0.1022  1.3151
N       1.5287  0.1020  -1.3151
N       1.5287  -0.1017  1.3151
C       -2.8048  0.4412  -0.6396
C       -2.8050  -0.4405  0.6396
C       2.8048  0.4411  -0.6397
C       2.8050  -0.4400  0.6398
H       -1.1246  0.9715  -1.7570
H       -2.9692  1.4959  -0.4758
H       -3.5820  0.0690  -1.3023
H       -3.5820  -0.0679  1.3025
H       -2.9698  -1.4952  0.4758
H       -1.7764  0.5996  2.0695
H       -1.1251  -0.9721  1.7565
H       1.7767  -0.6003  -2.0688
H       1.1248  0.9712  -1.7638
H       3.5820  0.0620  -1.3025
H       2.9693  1.4959  -0.4764
H       2.9701  -1.4948  0.4764
H       3.5819  -0.0604  1.3026
H       1.1316  -0.9713  1.7635
H       1.7762  0.6003  2.0692
H       -1.7767  -0.6000  -2.0692
