27

Co      0.0000  0.0732  0.0050
Cl      0.0002  -2.3880  -0.2290
Cl      -0.0001  2.2870  0.2190
N       -1.3810  0.1200  -1.2658
N       -1.3810  -0.1353  1.2707
N       1.3810  0.1199  -1.2657
N       1.3810  -0.1348  1.2708
C       -2.7201  0.4015  -0.6206
C       -2.7203  -0.4008  0.6155
C       2.7202  0.4014  -0.6207
C       2.7203  -0.4003  0.6157
H       -1.4529  0.8215  -2.0260
H       -2.8002  1.4489  -0.3983
H       -3.3754  0.1721  -1.5008
H       -3.3754  -0.1811  1.4958
H       -2.8008  -1.4482  0.3832
H       -1.5715  0.6542  1.8926
H       -1.3978  -0.9230  1.9195
H       1.5314  -0.7508  -1.7606
H       1.4531  0.8212  -2.0262
H       3.3754  0.1717  -1.5009
H       2.8003  1.4489  -0.3989
H       2.8011  -1.4478  0.3838
H       3.3754  -0.1802  1.4960
H       1.3977  -0.9222  1.9198
H       1.5713  0.6549  1.8923
H       -1.5314  -0.7505  -1.7610
