27

Co      0.0000  0.0000  0.0000
Cl      0.0002  -2.3426  -0.2127
Cl      -0.0001  2.3427  0.2128
N       -1.3174  0.1960  -1.3650
N       -1.3174  -0.1962  1.3649
N       1.3174  0.1903  -1.3650
N       1.3174  -0.1901  1.3650
C       -2.7997  0.3452  -0.7265
C       -2.7999  -0.3445  0.7265
C       2.7998  0.3452  -0.7267
C       2.7999  -0.3441  0.7267
H       -1.3540  0.9813  -2.0295
H       -2.6019  1.4217  -0.5650
H       -3.7662  0.2244  -1.2429
H       -3.7593  -0.2233  1.2499
H       -2.6026  -1.4252  0.5651
H       -1.3943  0.6106  1.9685
H       -1.3545  -0.9818  2.0290
H       1.4069  -0.6112  -1.9622
H       1.3542  0.9754  -2.0354
H       3.7661  0.2296  -1.2431
H       2.5964  1.4315  -0.5601
H       2.5972  -1.4304  0.5601
H       3.7661  -0.2281  1.2432
H       1.3544  -0.9754  2.0350
H       1.4064  0.6113  1.9626
H       -1.4013  -0.6109  -1.9682
