27

Co      0.0000  -0.0732  -0.0050
Cl      0.0002  -2.3055  -0.2134
Cl      -0.0001  2.4066  0.2236
N       -1.5362  0.1559  -1.3513
N       -1.5362  -0.1408  1.3462
N       1.5363  0.1558  -1.3513
N       1.5362  -0.1403  1.3462
C       -2.8108  0.4094  -0.6101
C       -2.8110  -0.4087  0.6151
C       2.8109  0.4094  -0.6102
C       2.8110  -0.4083  0.6154
H       -1.2248  0.9820  -1.8550
H       -2.9814  1.4437  -0.3416
H       -3.5041  0.1177  -1.4162
H       -3.5108  -0.1065  1.4146
H       -2.9821  -1.4430  0.3568
H       -1.3248  0.8010  1.7515
H       -1.2807  -0.8816  1.9606
H       1.3587  -0.7056  -1.8821
H       1.2250  0.9817  -1.8553
H       3.5041  0.1173  -1.4163
H       2.9815  1.4438  -0.3422
H       2.9824  -1.4427  0.3574
H       3.5040  -0.1057  1.4215
H       1.2807  -0.8808  1.9610
H       1.3178  0.8017  1.7511
H       -1.3587  -0.7054  -1.8825
