27

Co      0.0000  0.0732  0.0050
Cl      0.0002  -2.2677  -0.2072
Cl      -0.0001  2.1668  0.1972
N       -1.3671  0.1729  -1.3928
N       -1.3671  -0.1881  1.3977
N       1.3671  0.1672  -1.3927
N       1.3670  -0.1820  1.3978
C       -2.7757  0.4064  -0.7084
C       -2.7759  -0.4057  0.7033
C       2.7758  0.4064  -0.7085
C       2.7759  -0.4053  0.7036
H       -1.1830  0.9233  -2.0210
H       -2.8409  1.4625  -0.5378
H       -3.5559  0.1149  -1.3970
H       -3.5559  -0.1239  1.3921
H       -2.8416  -1.4660  0.5226
H       -1.4095  0.5996  2.0336
H       -1.1279  -1.0248  1.9145
H       1.3749  -0.6962  -1.8960
H       1.1832  0.9174  -2.0268
H       3.5559  0.1201  -1.3971
H       2.8354  1.4724  -0.5328
H       2.8362  -1.4713  0.5177
H       3.5558  -0.1286  1.3922
H       1.1278  -1.0184  1.9205
H       1.4148  0.6003  2.0277
H       -1.3693  -0.6959  -1.9020
