27

Co      0.0736  0.0000  0.0000
Cl      -0.0096  -2.2817  -0.2214
Cl      -0.0099  2.2817  0.2215
N       -1.4479  0.1912  -1.3268
N       -1.4479  -0.1914  1.3267
N       1.4086  0.1961  -1.4101
N       1.4086  -0.1958  1.4101
C       -2.6624  0.4259  -0.7077
C       -2.6627  -0.4252  0.7077
C       2.5791  0.4161  -0.7225
C       2.5793  -0.4150  0.7226
H       -1.3275  0.7628  -2.1768
H       -2.6965  1.4892  -0.4956
H       -3.4785  0.2061  -1.3738
H       -3.4784  -0.2051  1.3739
H       -2.6972  -1.4885  0.4956
H       -1.4295  0.8130  1.6000
H       -1.3279  -0.7633  2.1763
H       1.3856  -0.7842  -1.7268
H       1.2689  0.8066  -2.1998
H       3.4294  0.1977  -1.3438
H       2.5943  1.4794  -0.5208
H       2.5951  -1.4783  0.5208
H       3.4293  -0.1961  1.3440
H       1.2624  -0.8067  2.1995
H       1.3851  0.7843  1.7271
H       -1.4298  -0.8134  -1.5996
