27

Co      -0.1111  0.0000  0.0000
Cl      0.0101  -2.3560  -0.2185
Cl      0.0097  2.3561  0.2186
N       -1.4588  0.1473  -1.2950
N       -1.4588  -0.1474  1.2949
N       1.5595  0.1628  -1.3618
N       1.5594  -0.1625  1.3618
C       -2.7759  0.4011  -0.6403
C       -2.7761  -0.4004  0.6403
C       2.8593  0.4041  -0.6394
C       2.8595  -0.4030  0.6394
H       -1.2430  0.9025  -1.9189
H       -2.8477  1.4558  -0.4394
H       -3.5811  0.1155  -1.3000
H       -3.5810  -0.1144  1.3002
H       -2.8483  -1.4551  0.4394
H       -1.4888  0.7011  1.8226
H       -1.2435  -0.9031  1.9185
H       1.6220  -0.6970  -1.8753
H       1.4250  0.9059  -2.0195
H       3.6984  0.1230  -1.2662
H       2.9254  1.4588  -0.4360
H       2.9262  -1.4577  0.4360
H       3.6983  -0.1214  1.2664
H       1.4252  -0.9060  2.0192
H       1.6215  0.6971  1.8757
H       -1.4891  -0.7015  -1.8223
