27

Co      0.0000  0.0732  0.0050
Cl      0.0002  -2.2734  -0.2184
Cl      -0.0001  2.1724  0.2084
N       -1.4737  0.1915  -1.3579
N       -1.4737  -0.2067  1.3629
N       1.4737  0.1914  -1.3578
N       1.4736  -0.2063  1.3629
C       -2.6742  0.4210  -0.7176
C       -2.6744  -0.4203  0.7125
C       2.6743  0.4210  -0.7177
C       2.6744  -0.4199  0.7127
H       -1.3740  0.7424  -2.2365
H       -2.7116  1.4843  -0.5181
H       -3.5020  0.1857  -1.3645
H       -3.5020  -0.1947  1.3596
H       -2.7123  -1.4836  0.5030
H       -1.4731  0.7423  1.7240
H       -1.3188  -0.8439  2.1300
H       1.4329  -0.8389  -1.5920
H       1.3742  0.7421  -2.2301
H       3.5020  0.1920  -1.3689
H       2.7074  1.4843  -0.5187
H       2.7083  -1.4832  0.5036
H       3.5019  -0.2005  1.3640
H       1.3121  -0.8431  2.1237
H       1.4728  0.7431  1.7237
H       -1.4329  -0.8386  -1.5924
