27

Co      0.0000  0.0000  0.0000
Cl      0.0002  -2.3318  -0.2127
Cl      -0.0001  2.3319  0.2128
N       -1.3258  0.1793  -1.2536
N       -1.3257  -0.1795  1.2535
N       1.3258  0.1736  -1.2535
N       1.3257  -0.1733  1.2535
C       -2.7325  0.3554  -0.6733
C       -2.7327  -0.3547  0.6733
C       2.7326  0.3553  -0.6734
C       2.7327  -0.3542  0.6735
H       -1.4841  0.9516  -1.9666
H       -2.8064  1.4288  -0.5744
H       -3.4830  0.0378  -1.3907
H       -3.4762  -0.0367  1.3976
H       -2.8070  -1.4280  0.5744
H       -1.6941  0.5636  1.9396
H       -1.4845  -0.9522  1.9661
H       1.7068  -0.5642  -1.9333
H       1.4843  0.9457  -1.9724
H       3.4830  0.0430  -1.3908
H       2.8009  1.4344  -0.5694
H       2.8017  -1.4333  0.5695
H       3.4829  -0.0415  1.3910
H       1.4844  -0.9458  1.9721
H       1.7063  0.5643  1.9336
H       -1.7012  -0.5640  -1.9393
