27

Co      0.0000  0.0000  0.0000
Cl      0.0002  -2.3002  -0.2159
Cl      -0.0001  2.3003  0.2160
N       -1.5472  0.1551  -1.4529
N       -1.5472  -0.1552  1.4528
N       1.5472  0.1550  -1.4528
N       1.5472  -0.1547  1.4528
C       -2.7524  0.4156  -0.6344
C       -2.7526  -0.4149  0.6343
C       2.7525  0.4156  -0.6345
C       2.7526  -0.4145  0.6346
H       -1.0415  0.9354  -1.9532
H       -2.8653  1.4573  -0.3778
H       -3.6435  0.1040  -1.1675
H       -3.6502  -0.1029  1.1608
H       -2.8660  -1.4565  0.3778
H       -1.2472  0.7781  1.8721
H       -1.0420  -0.9360  1.9527
H       1.2407  -0.7787  -1.8714
H       1.0417  0.9351  -1.9534
H       3.6434  0.1036  -1.1676
H       2.8655  1.4573  -0.3784
H       2.8663  -1.4562  0.3784
H       3.6434  -0.1020  1.1677
H       1.0419  -0.9352  1.9531
H       1.2402  0.7788  1.8718
H       -1.2407  -0.7784  -1.8718
