27

Co      0.0736  0.0640  0.0633
Cl      -0.0096  -2.3261  -0.2240
Cl      -0.0099  2.2313  0.2079
N       -1.3814  0.1297  -1.1934
N       -1.4010  -0.1511  1.2536
N       1.4600  0.1345  -1.3872
N       1.2439  -0.1555  1.2266
C       -2.8769  0.4492  -0.7058
C       -2.8772  -0.4399  0.6750
C       2.8673  0.4614  -0.7501
C       2.7202  -0.4076  0.6604
H       -1.2631  0.7359  -2.0220
H       -2.8096  1.5231  -0.5450
H       -3.7393  0.2272  -1.3194
H       -3.7546  -0.2767  1.2930
H       -2.7673  -1.5119  0.4771
H       -1.7225  0.6452  1.8378
H       -1.3000  -0.8632  1.9781
H       1.7431  -0.7523  -1.8333
H       1.3517  0.7503  -2.2063
H       3.8227  0.1974  -1.2263
H       2.7852  1.5396  -0.6217
H       2.5959  -1.4796  0.4508
H       3.5797  -0.2759  1.3110
H       1.0938  -0.9361  1.8532
H       1.5376  0.5944  1.8987
H       -1.6400  -0.7624  -1.6399
