27

Co      -0.1111  0.0092  -0.0583
Cl      0.0101  -2.3755  -0.2266
Cl      0.0097  2.3694  0.2329
N       -1.5712  0.1168  -1.3778
N       -1.5516  -0.1108  1.3225
N       1.5541  0.1379  -1.3342
N       1.7700  -0.1315  1.4998
C       -2.7082  0.3946  -0.5685
C       -2.7084  -0.4024  0.5942
C       2.7180  0.3754  -0.5381
C       2.8654  -0.4271  0.6228
H       -1.4391  0.8542  -2.0533
H       -2.7084  1.4448  -0.3119
H       -3.6314  0.1835  -1.1043
H       -3.6093  -0.1419  1.1327
H       -2.7520  -1.4546  0.3647
H       -1.6134  0.7616  1.8058
H       -1.3475  -0.8290  1.9903
H       1.6428  -0.7177  -1.8641
H       1.4738  0.8927  -1.9936
H       3.6162  0.2001  -1.1294
H       2.7181  1.4159  -0.2626
H       2.9091  -1.4737  0.4185
H       3.8591  -0.1286  1.0399
H       1.6764  -0.8081  2.2400
H       1.8877  0.7797  1.9308
H       -1.6628  -0.7411  -1.8717
