27

Co      -0.1111  0.0092  -0.0583
Cl      0.0101  -2.3591  -0.2154
Cl      0.0097  2.3530  0.2216
N       -1.4686  0.1503  -1.3227
N       -1.4489  -0.1443  1.2673
N       1.4515  0.1658  -1.2790
N       1.6674  -0.1594  1.4447
C       -2.7759  0.3968  -0.6274
C       -2.7761  -0.4047  0.6532
C       2.7857  0.3777  -0.5970
C       2.9331  -0.4293  0.6818
H       -1.2891  0.9154  -1.9502
H       -2.8262  1.4485  -0.4130
H       -3.5921  0.1358  -1.2859
H       -3.5700  -0.0942  1.3143
H       -2.8698  -1.4625  0.4657
H       -1.4643  0.7115  1.7895
H       -1.1974  -0.8902  1.8871
H       1.4993  -0.6676  -1.8422
H       1.3238  0.9482  -1.8962
H       3.5769  0.1580  -1.3110
H       2.8303  1.4294  -0.3580
H       3.0213  -1.4872  0.5139
H       3.8198  -0.0865  1.2216
H       1.5264  -0.8636  2.1425
H       1.7442  0.7296  1.9089
H       -1.5137  -0.6910  -1.8554
