27

Co      0.0000  0.0732  0.0050
Cl      0.0002  -2.3292  -0.2210
Cl      -0.0001  2.2282  0.2110
N       -1.4072  0.1859  -1.2507
N       -1.4072  -0.2012  1.2556
N       1.4072  0.1858  -1.2506
N       1.4072  -0.2007  1.2557
C       -2.7737  0.4153  -0.6689
C       -2.7739  -0.4145  0.6638
C       2.7738  0.4152  -0.6690
C       2.7739  -0.4141  0.6640
H       -1.4438  0.6882  -2.2418
H       -2.8139  1.4903  -0.5381
H       -3.6781  0.0747  -1.1807
H       -3.6713  -0.0838  1.1826
H       -2.8145  -1.4896  0.5230
H       -1.6849  0.7079  1.6632
H       -1.3887  -0.7897  2.1353
H       1.6515  -0.8045  -1.5312
H       1.4440  0.6879  -2.2354
H       3.6781  0.0810  -1.1808
H       2.8140  1.4903  -0.5388
H       2.8148  -1.4892  0.5237
H       3.6780  -0.0895  1.1759
H       1.3820  -0.7890  2.1290
H       1.6914  0.7087  1.6629
H       -1.6515  -0.8043  -1.5316
