27

Co      -0.0736  -0.0732  -0.0050
Cl      0.0101  -2.3219  -0.2247
Cl      0.0097  2.4230  0.2349
N       -1.6193  0.1247  -1.4482
N       -1.6193  -0.1097  1.4430
N       1.6585  0.1254  -1.3648
N       1.6585  -0.1100  1.3597
C       -2.7014  0.4022  -0.5585
C       -2.7016  -0.4015  0.5636
C       2.7848  0.4120  -0.5439
C       2.7850  -0.4109  0.5491
H       -1.3454  0.9429  -1.9728
H       -2.8146  1.4352  -0.2528
H       -3.5188  0.1581  -1.2174
H       -3.5256  -0.1469  1.2158
H       -2.8152  -1.4302  0.2680
H       -1.4519  0.8364  1.8315
H       -1.4014  -0.8424  2.0784
H       1.5243  -0.7705  -1.8402
H       1.4044  0.9041  -1.9380
H       3.5679  0.1668  -1.2518
H       2.9184  1.4352  -0.2345
H       2.9192  -1.4341  0.2497
H       3.5678  -0.1551  1.2570
H       1.4601  -0.8031  2.0437
H       1.4834  0.8665  1.7093
H       -1.4858  -0.7408  -1.9625
