27

Co      0.0000  0.0000  0.0000
Cl      0.0002  -2.3136  -0.2217
Cl      -0.0001  2.3137  0.2218
N       -1.7118  0.1209  -1.3960
N       -1.7118  -0.1210  1.3959
N       1.7118  0.1264  -1.3959
N       1.7118  -0.1261  1.3959
C       -2.7771  0.4663  -0.5747
C       -2.7773  -0.4655  0.5747
C       2.7772  0.4662  -0.5748
C       2.7773  -0.4651  0.5749
H       -1.1028  0.8314  -1.9538
H       -3.0550  1.5065  -0.3382
H       -3.6527  0.0058  -1.0719
H       -3.6594  -0.0047  1.0653
H       -3.0556  -1.5015  0.3382
H       -1.6185  0.8120  1.7885
H       -1.1032  -0.8319  1.9533
H       1.6063  -0.8126  -1.7934
H       1.1030  0.8367  -1.9484
H       3.6527  -0.0002  -1.0721
H       3.0607  1.4967  -0.3445
H       3.0615  -1.4956  0.3445
H       3.6526  0.0018  1.0722
H       1.1032  -0.8368  1.9481
H       1.6058  0.8127  1.7938
H       -1.6119  -0.8124  -1.7882
