27

Co      0.0000  -0.0732  -0.0050
Cl      0.0002  -2.2446  -0.2221
Cl      -0.0001  2.3456  0.2323
N       -1.5707  0.1074  -1.3383
N       -1.5707  -0.0924  1.3332
N       1.5707  0.1130  -1.3382
N       1.5707  -0.0975  1.3332
C       -2.6990  0.4133  -0.5440
C       -2.6993  -0.4126  0.5490
C       2.6991  0.4132  -0.5441
C       2.6993  -0.4121  0.5492
H       -1.2959  0.8819  -1.9176
H       -2.8196  1.4462  -0.2257
H       -3.4727  0.1787  -1.2587
H       -3.4794  -0.1675  1.2571
H       -2.8202  -1.4413  0.2409
H       -1.4064  0.8828  1.6729
H       -1.3519  -0.7814  2.0232
H       1.4346  -0.7875  -1.8091
H       1.2961  0.8872  -1.9122
H       3.4726  0.1727  -1.2588
H       2.8253  1.4364  -0.2319
H       2.8261  -1.4353  0.2471
H       3.4726  -0.1611  1.2640
H       1.3518  -0.7863  2.0179
H       1.3937  0.8836  1.6782
H       -1.4402  -0.7873  -1.8039
