27

Co      0.0000  0.0000  0.0000
Cl      0.0002  -2.2894  -0.2159
Cl      -0.0001  2.2895  0.2160
N       -1.5067  0.0931  -1.3249
N       -1.5067  -0.0932  1.3248
N       1.5068  0.0930  -1.3249
N       1.5067  -0.0927  1.3249
C       -2.7330  0.4130  -0.5475
C       -2.7332  -0.4123  0.5475
C       2.7330  0.4130  -0.5476
C       2.7332  -0.4119  0.5477
H       -0.9507  0.9551  -1.7415
H       -2.9896  1.4706  -0.4159
H       -3.7023  -0.1426  -0.8735
H       -3.7023  0.1437  0.8737
H       -2.9903  -1.4657  0.4159
H       -1.6943  0.6421  2.0299
H       -0.9512  -0.9556  1.7410
H       1.6945  -0.6428  -2.0292
H       0.9509  0.9548  -1.7483
H       3.7023  -0.1496  -0.8694
H       2.9940  1.4664  -0.4165
H       2.9949  -1.4653  0.4165
H       3.7022  0.1512  0.8695
H       0.9577  -0.9548  1.7480
H       1.6940  0.6429  2.0296
H       -1.6945  -0.6425  -2.0296
