27

Co      0.0000  0.0000  0.0000
Cl      0.0002  -2.2972  -0.2105
Cl      -0.0001  2.2973  0.2106
N       -1.5116  0.1475  -1.3376
N       -1.5116  -0.1477  1.3375
N       1.5116  0.1475  -1.3376
N       1.5116  -0.1472  1.3376
C       -2.9053  0.4026  -0.5711
C       -2.9056  -0.4019  0.5711
C       2.9054  0.4026  -0.5712
C       2.9056  -0.4015  0.5713
H       -1.3777  0.9038  -1.9868
H       -3.0536  1.4487  -0.3714
H       -3.7222  0.0213  -1.1854
H       -3.7221  -0.0203  1.1856
H       -3.0542  -1.4480  0.3714
H       -1.6136  0.6993  1.8714
H       -1.3782  -0.9044  1.9863
H       1.6138  -0.6999  -1.8707
H       1.3779  0.9035  -1.9871
H       3.7221  0.0210  -1.1813
H       3.0580  1.4487  -0.3720
H       3.0588  -1.4476  0.3720
H       3.7221  -0.0194  1.1814
H       1.3781  -0.9036  1.9867
H       1.6133  0.7000  1.8711
H       -1.6138  -0.6997  -1.8711
