27

Co      0.0000  0.0000  0.0000
Cl      0.0002  -2.3318  -0.2127
Cl      -0.0001  2.3319  0.2128
N       -1.3056  0.2286  -1.3125
N       -1.3056  -0.2287  1.3124
N       1.3056  0.2229  -1.3125
N       1.3056  -0.2226  1.3125
C       -2.7934  0.3689  -0.6989
C       -2.7937  -0.3682  0.6988
C       2.7935  0.3688  -0.6990
C       2.7937  -0.3677  0.6991
H       -1.3092  0.8801  -2.1066
H       -2.7884  1.4250  -0.4896
H       -3.5717  0.1507  -1.4247
H       -3.5716  -0.1496  1.4248
H       -2.7890  -1.4285  0.4896
H       -1.1114  0.7660  1.6344
H       -1.3097  -0.8807  2.1061
H       1.1172  -0.7666  -1.6281
H       1.3094  0.8742  -2.1058
H       3.5716  0.1626  -1.4248
H       2.7829  1.4348  -0.4846
H       2.7837  -1.4337  0.4847
H       3.5716  -0.1610  1.4250
H       1.3030  -0.8743  2.1055
H       1.1167  0.7667  1.6285
H       -1.1116  -0.7664  -1.6341
