27

Co      0.0000  0.0732  0.0050
Cl      0.0002  -2.3987  -0.2290
Cl      -0.0001  2.2978  0.2190
N       -1.3585  0.1370  -1.3569
N       -1.3585  -0.1523  1.3618
N       1.3585  0.1369  -1.3568
N       1.3584  -0.1518  1.3619
C       -2.7746  0.4364  -0.7074
C       -2.7749  -0.4357  0.7024
C       2.7747  0.4364  -0.7076
C       2.7748  -0.4353  0.7026
H       -1.2747  0.7916  -2.1370
H       -2.6498  1.5072  -0.5354
H       -3.7100  0.2553  -1.2433
H       -3.7032  -0.2643  1.2452
H       -2.6505  -1.5107  0.5203
H       -1.6699  0.6274  1.9814
H       -1.2195  -0.8931  2.0305
H       1.6365  -0.7240  -1.8494
H       1.2749  0.7913  -2.1372
H       3.7100  0.2549  -1.2434
H       2.6499  1.5115  -0.5360
H       2.6508  -1.5104  0.5209
H       3.7099  -0.2634  1.2385
H       1.2195  -0.8923  2.0309
H       1.6764  0.6282  1.9811
H       -1.6366  -0.7237  -1.8498
