27

Co      0.0000  0.0000  0.0000
Cl      0.0002  -2.3080  -0.2105
Cl      -0.0001  2.3081  0.2106
N       -1.6562  0.1650  -1.4016
N       -1.6562  -0.1652  1.4015
N       1.6562  0.1650  -1.4015
N       1.6562  -0.1647  1.4015
C       -2.8021  0.3678  -0.5818
C       -2.8024  -0.3671  0.5818
C       2.8022  0.3677  -0.5819
C       2.8024  -0.3666  0.5820
H       -1.4282  0.9851  -1.9357
H       -3.0289  1.4064  -0.3463
H       -3.5634  0.0062  -1.2705
H       -3.5701  -0.0051  1.2639
H       -3.0295  -1.4014  0.3464
H       -1.4722  0.7108  1.9068
H       -1.4286  -0.9857  1.9352
H       1.4656  -0.7114  -1.9060
H       1.4284  0.9848  -1.9359
H       3.5633  0.0058  -1.2707
H       3.0290  1.4022  -0.3470
H       3.0298  -1.4011  0.3470
H       3.5633  -0.0043  1.2708
H       1.4285  -0.9849  1.9356
H       1.4651  0.7115  1.9064
H       -1.4657  -0.7111  -1.9064
