27

Co      0.0000  -0.0092  0.0583
Cl      0.0002  -2.3452  -0.2270
Cl      -0.0001  2.3514  0.2210
N       -1.4769  0.1390  -1.3820
N       -1.3788  -0.1452  1.3267
N       1.4769  0.1389  -1.3820
N       1.3787  -0.1447  1.3268
C       -2.7497  0.4205  -0.6674
C       -2.6764  -0.3891  0.6121
C       2.7498  0.4205  -0.6675
C       2.6763  -0.3887  0.6124
H       -1.2776  0.8585  -2.0436
H       -2.8115  1.4783  -0.4791
H       -3.6084  0.1204  -1.2470
H       -3.4980  -0.1745  1.2778
H       -2.6956  -1.4407  0.3749
H       -1.4326  0.6955  1.8692
H       -1.2228  -0.9143  1.9511
H       1.5310  -0.7360  -1.8685
H       1.2778  0.8582  -2.0438
H       3.6084  0.1200  -1.2471
H       2.8116  1.4783  -0.4798
H       2.6959  -1.4404  0.3755
H       3.4979  -0.1736  1.2780
H       1.2227  -0.9135  1.9515
H       1.4324  0.6962  1.8689
H       -1.5310  -0.7388  -1.8689
