27

Co      -0.0736  0.0000  0.0000
Cl      0.0101  -2.3002  -0.2159
Cl      0.0097  2.3003  0.2160
N       -1.4859  0.1570  -1.4742
N       -1.4859  -0.1571  1.4741
N       1.5252  0.1520  -1.3908
N       1.5251  -0.1517  1.3908
C       -2.7175  0.3967  -0.6543
C       -2.7177  -0.3960  0.6543
C       2.8009  0.4064  -0.6397
C       2.8011  -0.4053  0.6398
H       -1.3117  0.9449  -2.0653
H       -2.7432  1.4514  -0.4491
H       -3.6091  0.1398  -1.2110
H       -3.6091  -0.1387  1.2112
H       -2.7438  -1.4507  0.4491
H       -1.5445  0.6727  2.0352
H       -1.3122  -0.9455  2.0648
H       1.5889  -0.7028  -1.9070
H       1.3708  0.9005  -2.0361
H       3.6581  0.1541  -1.2455
H       2.8414  1.4612  -0.4252
H       2.8422  -1.4601  0.4252
H       3.6581  -0.1525  1.2457
H       1.3709  -0.9005  2.0358
H       1.5884  0.7029  1.9074
H       -1.5448  -0.6731  -2.0349
