27

Co      0.0000  0.0000  0.0000
Cl      0.0002  -2.3616  -0.2297
Cl      -0.0001  2.3617  0.2298
N       -1.5794  0.1143  -1.2975
N       -1.5794  -0.1144  1.2974
N       1.5795  0.1199  -1.2974
N       1.5794  -0.1196  1.2975
C       -2.7570  0.4039  -0.5736
C       -2.7573  -0.4032  0.5736
C       2.7571  0.4039  -0.5738
C       2.7573  -0.4028  0.5738
H       -1.4409  0.8145  -2.0112
H       -2.7938  1.4572  -0.3291
H       -3.6467  0.1600  -1.1409
H       -3.6467  -0.1589  1.1410
H       -2.7944  -1.4523  0.3291
H       -1.6650  0.7704  1.7597
H       -1.4413  -0.8150  2.0107
H       1.6596  -0.7710  -1.7646
H       1.4411  0.8198  -2.0058
H       3.6467  0.1540  -1.1410
H       2.7995  1.4474  -0.3354
H       2.8003  -1.4463  0.3354
H       3.6466  -0.1524  1.1412
H       1.4412  -0.8199  2.0055
H       1.6591  0.7711  1.7650
H       -1.6652  -0.7707  -1.7594
