27

Co      0.0376  0.0640  0.0633
Cl      0.0002  -2.2703  -0.2215
Cl      -0.0001  2.1755  0.2053
N       -1.4755  0.1388  -1.4442
N       -1.3774  -0.1602  1.3939
N       1.4141  0.1182  -1.2939
N       1.3159  -0.1392  1.2437
C       -2.7587  0.4056  -0.6893
C       -2.6854  -0.3742  0.6290
C       2.7588  0.4124  -0.6758
C       2.6854  -0.3806  0.6156
H       -1.6787  0.8171  -2.2714
H       -2.7231  1.4764  -0.5510
H       -3.6424  0.1675  -1.2661
H       -3.5252  -0.2317  1.2987
H       -2.6072  -1.4389  0.4316
H       -1.8338  0.5421  2.1339
H       -1.5684  -0.9739  2.0728
H       1.8098  -0.7127  -1.8209
H       1.5560  0.7690  -2.1419
H       3.5741  0.1740  -1.3346
H       2.7437  1.4833  -0.5312
H       2.6280  -1.4454  0.4118
H       3.4636  -0.2377  1.3603
H       1.4454  -0.9253  1.9435
H       1.7516  0.5769  1.9526
H       -1.8986  -0.6813  -2.0022
