27

Co      0.0376  0.0000  0.0000
Cl      0.0002  -2.2709  -0.2214
Cl      -0.0001  2.2709  0.2215
N       -1.3904  0.1374  -1.3613
N       -1.3904  -0.1375  1.3612
N       1.3290  0.1169  -1.2110
N       1.3289  -0.1166  1.2110
C       -2.6689  0.4079  -0.6394
C       -2.6691  -0.4072  0.6394
C       2.6690  0.4147  -0.6259
C       2.6691  -0.4136  0.6260
H       -1.2325  0.8711  -2.0219
H       -2.6989  1.4626  -0.4224
H       -3.5167  0.1579  -1.2523
H       -3.5166  -0.1568  1.2525
H       -2.6996  -1.4619  0.4224
H       -1.4584  0.7317  1.8665
H       -1.2330  -0.8716  2.0215
H       1.3699  -0.7665  -1.6848
H       1.1098  0.8230  -1.8924
H       3.4483  0.1643  -1.3207
H       2.7195  1.4695  -0.4025
H       2.7204  -1.4684  0.4026
H       3.4483  -0.1627  1.3209
H       1.1100  -0.8230  1.8921
H       1.3694  0.7666  1.6852
H       -1.4587  -0.7321  -1.8662
