27

Co      -0.1111  0.0092  -0.0583
Cl      0.0101  -2.2337  -0.2048
Cl      0.0097  2.2277  0.2111
N       -1.4971  0.0864  -1.3111
N       -1.4774  -0.0804  1.2558
N       1.4800  0.1019  -1.2674
N       1.6959  -0.0955  1.4331
C       -2.7447  0.3999  -0.5206
C       -2.7449  -0.4078  0.5463
C       2.7545  0.3808  -0.4902
C       2.9019  -0.4325  0.5750
H       -1.1722  0.9887  -1.7510
H       -3.0153  1.4472  -0.3651
H       -3.5573  -0.0979  -1.0782
H       -3.5352  0.1395  1.1065
H       -3.0589  -1.4570  0.4178
H       -1.7578  0.6105  2.0284
H       -1.0806  -0.9635  1.6879
H       1.7928  -0.5666  -2.0812
H       1.2069  1.0215  -1.7035
H       3.5421  -0.0823  -1.0990
H       3.0237  1.4239  -0.3101
H       3.2147  -1.4817  0.4660
H       3.7850  0.1538  1.0095
H       1.4162  -0.9369  1.9499
H       2.0377  0.6286  2.1478
H       -1.8072  -0.5901  -2.0944
