27

Co      0.1111  0.0732  0.0050
Cl      -0.0096  -2.3987  -0.2290
Cl      -0.0099  2.2978  0.2190
N       -1.4193  0.1423  -1.3301
N       -1.5371  -0.1575  1.4455
N       1.4364  0.1266  -1.3736
N       1.3185  -0.1415  1.2682
C       -2.7178  0.3956  -0.6270
C       -2.7917  -0.4170  0.6514
C       2.7081  0.4147  -0.6577
C       2.6346  -0.3915  0.6232
H       -1.2950  0.8522  -2.0235
H       -2.7552  1.4503  -0.4068
H       -3.5456  0.1542  -1.2773
H       -3.6781  -0.1485  1.2135
H       -2.8295  -1.4717  0.4432
H       -1.6420  0.6777  1.9964
H       -1.3872  -0.9243  2.0716
H       1.4689  -0.7790  -1.8109
H       1.2607  0.8188  -2.0780
H       3.5608  0.1312  -1.2525
H       2.7513  1.4694  -0.4630
H       2.6785  -1.4463  0.3963
H       3.4282  -0.1545  1.3065
H       1.0580  -0.9493  1.8170
H       1.3615  0.6611  1.8763
H       -1.4546  -0.7519  -1.7985
