27

Co      0.0000  0.0732  0.0050
Cl      0.0002  -2.3322  -0.2264
Cl      -0.0001  2.2312  0.2164
N       -1.3503  0.1263  -1.3495
N       -1.3503  -0.1416  1.3544
N       1.3503  0.1262  -1.3494
N       1.3503  -0.1411  1.3545
C       -2.6685  0.3937  -0.6549
C       -2.6687  -0.3930  0.6498
C       2.6686  0.3936  -0.6550
C       2.6687  -0.3925  0.6500
H       -1.5415  0.8128  -2.1685
H       -2.6109  1.4614  -0.4860
H       -3.5050  0.2066  -1.3103
H       -3.4982  -0.2156  1.3121
H       -2.6116  -1.4607  0.4708
H       -1.7931  0.5886  2.0470
H       -1.4864  -0.9143  2.0620
H       1.7597  -0.6852  -1.9150
H       1.5417  0.8125  -2.1687
H       3.5049  0.2062  -1.3104
H       2.6111  1.4615  -0.4866
H       2.6119  -1.4604  0.4715
H       3.5049  -0.2147  1.3055
H       1.4863  -0.9136  2.0624
H       1.7996  0.5894  2.0467
H       -1.7597  -0.6849  -1.9154
