27

Co      0.0000  -0.0732  -0.0050
Cl      0.0002  -2.1858  -0.2141
Cl      -0.0001  2.2868  0.2243
N       -1.5468  0.1153  -1.3353
N       -1.5468  -0.1003  1.3301
N       1.5468  0.1209  -1.3352
N       1.5467  -0.1054  1.3302
C       -2.8142  0.4445  -0.6091
C       -2.8144  -0.4438  0.6142
C       2.8143  0.4445  -0.6093
C       2.8144  -0.4434  0.6144
H       -1.3409  0.8459  -1.9960
H       -2.7803  1.4936  -0.3292
H       -3.6775  0.2831  -1.2424
H       -3.6775  -0.2719  1.2476
H       -2.7810  -1.4929  0.3444
H       -1.6198  0.8332  1.7142
H       -1.3969  -0.7454  2.1016
H       1.6548  -0.7379  -1.8504
H       1.3411  0.8512  -1.9906
H       3.6775  0.2771  -1.2425
H       2.7860  1.4880  -0.3355
H       2.7869  -1.4869  0.3506
H       3.6774  -0.2654  1.2477
H       1.3968  -0.7502  2.0963
H       1.6139  0.8340  1.7195
H       -1.6604  -0.7377  -1.8451
