27

Co      0.0000  0.0000  0.0000
Cl      0.0002  -2.2838  -0.2047
Cl      -0.0001  2.2839  0.2048
N       -1.4035  0.1919  -1.3317
N       -1.4035  -0.1920  1.3316
N       1.4035  0.1862  -1.3316
N       1.4034  -0.1859  1.3316
C       -2.7788  0.3518  -0.6804
C       -2.7790  -0.3511  0.6804
C       2.7788  0.3517  -0.6806
C       2.7790  -0.3506  0.6807
H       -1.5752  0.9883  -2.0195
H       -2.8454  1.4252  -0.5843
H       -3.5634  0.0370  -1.3565
H       -3.5566  -0.0359  1.3635
H       -2.8460  -1.4244  0.5843
H       -1.7790  0.5340  2.0419
H       -1.5757  -0.9889  2.0191
H       1.7917  -0.5347  -2.0356
H       1.5754  0.9824  -2.0254
H       3.5633  0.0422  -1.3567
H       2.8399  1.4308  -0.5793
H       2.8407  -1.4297  0.5793
H       3.5633  -0.0406  1.3568
H       1.5756  -0.9825  2.0251
H       1.7912  0.5348  2.0360
H       -1.7861  -0.5344  -2.0416
