27

Co      0.0000  0.0092  -0.0583
Cl      0.0002  -2.2337  -0.2048
Cl      -0.0001  2.2277  0.2111
N       -1.4696  0.1558  -1.3108
N       -1.5677  -0.1498  1.3659
N       1.4696  0.1557  -1.3107
N       1.5677  -0.1493  1.3659
C       -2.7830  0.3898  -0.6122
C       -2.8568  -0.4198  0.6674
C       2.7831  0.3898  -0.6123
C       2.8568  -0.4194  0.6676
H       -1.3186  0.9297  -1.9356
H       -2.8232  1.4415  -0.3802
H       -3.5942  0.1595  -1.2884
H       -3.7046  -0.1032  1.2578
H       -2.9404  -1.4776  0.4845
H       -1.6216  0.7224  1.8585
H       -1.3742  -0.8751  2.0271
H       1.5237  -0.6832  -1.8578
H       1.3188  0.9294  -1.9358
H       3.5942  0.1591  -1.2885
H       2.8233  1.4415  -0.3808
H       2.9407  -1.4772  0.4851
H       3.7045  -0.1024  1.2580
H       1.3741  -0.8743  2.0275
H       1.6213  0.7232  1.8582
H       -1.5237  -0.6799  -1.8582
