27

Co      0.0000  0.0000  0.0000
Cl      0.0002  -2.2838  -0.2047
Cl      -0.0001  2.2839  0.2048
N       -1.4255  0.2453  -1.3653
N       -1.4255  -0.2454  1.3652
N       1.4256  0.2396  -1.3652
N       1.4255  -0.2393  1.3652
C       -2.7848  0.3273  -0.6680
C       -2.7850  -0.3265  0.6680
C       2.7849  0.3272  -0.6681
C       2.7850  -0.3261  0.6682
H       -1.4849  0.9337  -2.1343
H       -2.8358  1.3876  -0.4868
H       -3.6309  0.0442  -1.2765
H       -3.6309  -0.0432  1.2766
H       -2.8365  -1.3869  0.4868
H       -1.2385  0.7238  1.7241
H       -1.4853  -0.9343  2.1338
H       1.2444  -0.7244  -1.7177
H       1.4851  0.9278  -2.1335
H       3.6309  0.0561  -1.2766
H       2.8303  1.3932  -0.4818
H       2.8311  -1.3921  0.4818
H       3.6308  -0.0545  1.2768
H       1.4786  -0.9279  2.1331
H       1.2439  0.7245  1.7181
H       -1.2388  -0.7242  -1.7237
