27

Co      0.0000  0.0000  0.0000
Cl      0.0002  -2.2414  -0.2079
Cl      -0.0001  2.2415  0.2080
N       -1.6545  0.1117  -1.4062
N       -1.6545  -0.1118  1.4061
N       1.6545  0.1116  -1.4062
N       1.6545  -0.1113  1.4062
C       -2.7381  0.4162  -0.5962
C       -2.7384  -0.4155  0.5962
C       2.7382  0.4162  -0.5963
C       2.7383  -0.4151  0.5964
H       -0.9648  1.0275  -1.7077
H       -3.0206  1.4620  -0.4062
H       -3.6127  -0.0601  -1.0780
H       -3.6195  0.0612  1.0714
H       -3.0213  -1.4571  0.4062
H       -1.5560  0.6583  2.0726
H       -0.9652  -1.0281  1.7072
H       1.5495  -0.6589  -2.0718
H       0.9650  1.0272  -1.7145
H       3.6127  -0.0671  -1.0782
H       3.0207  1.4578  -0.4068
H       3.0216  -1.4567  0.4068
H       3.6126  0.0687  1.0783
H       0.9718  -1.0273  1.7142
H       1.5490  0.6590  2.0722
H       -1.5495  -0.6586  -2.0722
