27

Co      -0.0736  0.0000  0.0000
Cl      0.0101  -2.2307  -0.2079
Cl      0.0097  2.2307  0.2080
N       -1.5684  0.1526  -1.3751
N       -1.5684  -0.1527  1.3750
N       1.6077  0.1476  -1.2916
N       1.6076  -0.1474  1.2916
C       -2.7164  0.3690  -0.5820
C       -2.7167  -0.3683  0.5820
C       2.7999  0.3788  -0.5674
C       2.8000  -0.3777  0.5675
H       -1.3198  0.9682  -1.9099
H       -2.9358  1.4076  -0.3437
H       -3.4681  0.0122  -1.2775
H       -3.4749  -0.0111  1.2708
H       -2.9365  -1.4027  0.3438
H       -1.3825  0.7278  1.8757
H       -1.3203  -0.9688  1.9094
H       1.4201  -0.7579  -1.7474
H       1.3789  0.9238  -1.8807
H       3.5171  0.0265  -1.3119
H       3.0340  1.4132  -0.3199
H       3.0349  -1.4121  0.3199
H       3.5171  -0.0249  1.3121
H       1.3790  -0.9239  1.8804
H       1.4195  0.7580  1.7478
H       -1.3759  -0.7282  -1.8753
