27

Co      0.0000  -0.0732  -0.0050
Cl      0.0002  -2.1802  -0.2028
Cl      -0.0001  2.2812  0.2130
N       -1.5739  0.1580  -1.3156
N       -1.5739  -0.1430  1.3104
N       1.5739  0.1580  -1.3155
N       1.5739  -0.1425  1.3105
C       -2.7454  0.4190  -0.6057
C       -2.7457  -0.4183  0.6107
C       2.7455  0.4190  -0.6058
C       2.7457  -0.4179  0.6110
H       -1.2733  0.9371  -1.8902
H       -3.0390  1.4779  -0.4704
H       -3.5440  -0.0788  -1.1824
H       -3.5440  0.0900  1.1876
H       -3.0396  -1.4730  0.4856
H       -1.7826  0.7168  1.8061
H       -1.3292  -0.8367  1.9958
H       1.8232  -0.6215  -1.9367
H       1.2735  0.9368  -1.8905
H       3.5440  -0.0792  -1.1825
H       3.0391  1.4737  -0.4710
H       3.0399  -1.4726  0.4862
H       3.5439  0.0909  1.1877
H       1.3292  -0.8359  1.9962
H       1.7823  0.7175  1.8058
H       -1.8232  -0.6212  -1.9371
