27

Co      0.0273  0.0338  0.0129
Cl      -1.0884  1.6121  -1.2171
Cl      1.1249  1.3923  1.3258
C       2.6452  -0.6941  -0.8295
C       2.1172  -1.9313  -0.0872
C       -2.5082  -1.2971  -0.4567
C       -2.4075  -1.1572  1.0622
N       1.4817  0.0855  -1.3296
N       1.0493  -1.5154  0.8748
N       -1.1176  -1.3496  -1.0223
N       -1.4751  -0.0344  1.3657
H       2.9633  -2.4536  0.3397
H       1.6267  -2.6074  -0.7734
H       -2.9476  -0.4248  -0.9172
H       -3.1264  -2.1589  -0.6733
H       1.7526  1.0432  -1.4998
H       1.2733  -0.2775  -2.2468
H       -1.9762  0.8366  1.3032
H       -1.1680  -0.0870  2.3186
H       -1.9831  -2.0400  1.5242
H       -3.3994  -1.0246  1.4737
H       0.5261  -2.3253  1.1574
H       1.5367  -1.2174  1.7101
H       3.3550  -1.0421  -1.5720
H       3.1538  -0.0208  -0.1592
H       -0.8329  -2.3110  -1.0024
H       -1.1841  -1.1036  -1.9949
