27

Co      -0.0138  -0.0370  0.0065
Cl      -1.0957  1.6297  -1.2229
Cl      1.1645  1.4565  1.3696
C       2.6671  -0.7069  -0.8135
C       2.1228  -1.9167  -0.1098
C       -2.5307  -1.2980  -0.4391
C       -2.4059  -1.1522  1.0494
N       1.5123  0.0670  -1.3352
N       1.0656  -1.4872  0.8578
N       -1.1342  -1.2916  -0.9850
N       -1.4486  -0.0542  1.2939
H       2.8555  -2.4501  0.4778
H       1.7128  -2.6121  -0.8330
H       -3.0984  -0.4743  -0.8330
H       -2.9806  -2.2243  -0.7762
H       1.6835  1.0594  -1.3290
H       1.1614  -0.1749  -2.2431
H       -1.8504  0.8579  1.1459
H       -1.0640  -0.0443  2.2176
H       -2.0327  -2.0729  1.4755
H       -3.3392  -0.9172  1.5369
H       0.5283  -2.2700  1.1669
H       1.4222  -0.9961  1.6635
H       3.2759  -0.9465  -1.6737
H       3.2559  -0.1156  -0.1348
H       -0.7079  -2.1992  -0.9731
H       -1.1317  -0.9442  -1.9243
