27

Co      0.0061  0.0177  -0.0014
Cl      -1.0788  1.6005  -1.2082
Cl      1.1428  1.4122  1.3484
C       2.5950  -0.6952  -0.8022
C       2.0856  -1.8876  -0.1098
C       -2.4936  -1.2968  -0.4448
C       -2.3894  -1.1243  1.0461
N       1.4878  0.0590  -1.3108
N       1.0904  -1.5068  0.8858
N       -1.1316  -1.3418  -1.0575
N       -1.4574  -0.0445  1.3518
H       2.9808  -2.3816  0.2730
H       1.5926  -2.5786  -0.7756
H       -2.9915  -0.4788  -0.9406
H       -3.0809  -2.2003  -0.5827
H       1.7716  1.0147  -1.4716
H       1.2959  -0.2980  -2.2335
H       -1.9385  0.8400  1.3133
H       -1.1396  -0.1242  2.2982
H       -1.9821  -2.0150  1.5050
H       -3.3850  -0.9878  1.4455
H       0.6400  -2.3379  1.2266
H       1.6032  -1.1558  1.6798
H       3.3474  -1.0461  -1.5085
H       3.0790  -0.0402  -0.0986
H       -0.8578  -2.3071  -1.0799
H       -1.2353  -1.0672  -2.0186
