27

Co      -0.0332  0.0021  0.0007
Cl      -1.0900  1.6116  -1.2186
Cl      1.1708  1.4548  1.3688
C       2.7264  -0.7202  -0.8502
C       2.1794  -1.9775  -0.1075
C       -2.5614  -1.3280  -0.4474
C       -2.4371  -1.1565  1.0569
N       1.5192  0.0668  -1.3026
N       1.0713  -1.4879  0.8644
N       -1.1547  -1.2673  -0.9893
N       -1.4509  -0.0676  1.2990
H       2.9450  -2.4916  0.4568
H       1.7321  -2.6895  -0.7875
H       -3.1304  -0.5291  -0.8995
H       -3.0184  -2.2739  -0.7083
H       1.7304  1.0511  -1.3294
H       1.2460  -0.1826  -2.2330
H       -1.8939  0.8323  1.2199
H       -1.0806  -0.1006  2.2301
H       -2.0557  -2.0637  1.5057
H       -3.3805  -0.9311  1.5280
H       0.5697  -2.2733  1.2350
H       1.5169  -1.0306  1.6420
H       3.3858  -0.9452  -1.6785
H       3.2617  -0.0986  -0.1501
H       -0.7582  -2.1887  -0.9935
H       -1.1913  -0.9495  -1.9379
