27

Co      0.0363  0.0306  0.0125
Cl      -1.0845  1.6086  -1.2257
Cl      1.1220  1.3884  1.3214
C       2.6008  -0.7110  -0.8144
C       2.1054  -1.8946  -0.0997
C       -2.4927  -1.3212  -0.4335
C       -2.4343  -1.1242  1.0581
N       1.4781  0.0507  -1.2684
N       1.0650  -1.4761  0.8291
N       -1.1210  -1.3073  -1.0347
N       -1.4600  -0.0777  1.3690
H       2.9872  -2.3365  0.3532
H       1.6607  -2.6343  -0.7474
H       -3.0224  -0.5343  -0.9477
H       -3.0309  -2.2549  -0.5725
H       1.7725  1.0012  -1.4483
H       1.2504  -0.3065  -2.1816
H       -1.9187  0.8173  1.3311
H       -1.1609  -0.1721  2.3227
H       -2.0944  -2.0230  1.5589
H       -3.4386  -0.9239  1.4123
H       0.5645  -2.2920  1.1298
H       1.5556  -1.1591  1.6533
H       3.3132  -1.0601  -1.5535
H       3.1210  -0.0642  -0.1318
H       -0.8333  -2.2646  -1.1037
H       -1.2428  -0.9940  -1.9832
