27

Co      -0.0273  -0.0274  -0.0161
Cl      -1.0907  1.6251  -1.2171
Cl      1.1916  1.4898  1.4036
C       2.6824  -0.7125  -0.7996
C       2.1378  -1.9485  -0.1227
C       -2.5359  -1.3141  -0.4437
C       -2.4289  -1.1608  1.0600
N       1.4929  0.0317  -1.3055
N       1.0778  -1.4614  0.8175
N       -1.1405  -1.2992  -0.9974
N       -1.4639  -0.0638  1.3106
H       2.9009  -2.4947  0.4158
H       1.6879  -2.6222  -0.8370
H       -3.0636  -0.4805  -0.8742
H       -3.0411  -2.2250  -0.7250
H       1.6987  1.0134  -1.3859
H       1.2395  -0.2744  -2.2237
H       -1.9048  0.8347  1.2100
H       -1.1016  -0.0826  2.2458
H       -2.0508  -2.0633  1.5184
H       -3.3870  -0.9483  1.5019
H       0.5815  -2.2372  1.2134
H       1.5235  -0.9815  1.5818
H       3.3677  -0.9495  -1.5969
H       3.1902  -0.0795  -0.0907
H       -0.7659  -2.2301  -0.9884
H       -1.1837  -1.0023  -1.9527
