27

Co      0.0253  0.0084  0.0271
Cl      -1.0913  1.6144  -1.2212
Cl      1.1279  1.3973  1.3203
C       2.6524  -0.7084  -0.8464
C       2.1403  -1.9305  -0.0773
C       -2.5190  -1.3083  -0.4587
C       -2.3927  -1.1351  1.0568
N       1.4644  0.0909  -1.2523
N       1.0440  -1.4669  0.8328
N       -1.1427  -1.3503  -1.0627
N       -1.4483  -0.0220  1.3453
H       2.9721  -2.4139  0.4096
H       1.6770  -2.6494  -0.7393
H       -2.9876  -0.4610  -0.9281
H       -3.1279  -2.1903  -0.6347
H       1.7336  1.0529  -1.3774
H       1.2327  -0.2190  -2.1793
H       -1.9348  0.8548  1.2631
H       -1.1561  -0.0614  2.3042
H       -1.9768  -2.0137  1.5315
H       -3.3769  -0.9807  1.4732
H       0.5155  -2.2631  1.1374
H       1.5277  -1.1452  1.6597
H       3.2928  -1.0540  -1.6453
H       3.2254  -0.0529  -0.2095
H       -0.8712  -2.3156  -1.1154
H       -1.2322  -1.0379  -2.0135
