27

Co      0.0352  0.0134  0.0028
Cl      -1.0835  1.6069  -1.2091
Cl      1.1402  1.4174  1.3455
C       2.5970  -0.7010  -0.7952
C       2.1012  -1.9090  -0.0846
C       -2.5136  -1.3002  -0.4548
C       -2.3968  -1.1518  1.0552
N       1.4448  0.0701  -1.2802
N       1.0644  -1.4828  0.8193
N       -1.1347  -1.3563  -1.0338
N       -1.4590  -0.0351  1.3358
H       2.9560  -2.4162  0.3467
H       1.6347  -2.5927  -0.7780
H       -2.9558  -0.4279  -0.9070
H       -3.1403  -2.1600  -0.6639
H       1.7288  1.0248  -1.4622
H       1.2379  -0.2979  -2.1953
H       -1.9521  0.8388  1.2593
H       -1.1568  -0.0752  2.2900
H       -1.9826  -2.0313  1.5302
H       -3.3863  -1.0016  1.4637
H       0.5452  -2.2808  1.1308
H       1.5463  -1.1533  1.6414
H       3.2759  -1.0683  -1.5521
H       3.1370  -0.0317  -0.1473
H       -0.8588  -2.3205  -1.0220
H       -1.2155  -1.1101  -2.0071
