27

Co      -0.0246  -0.0104  -0.0182
Cl      -1.0931  1.6285  -1.2257
Cl      1.1755  1.4690  1.3822
C       2.6544  -0.7143  -0.8152
C       2.1495  -1.9548  -0.0953
C       -2.5292  -1.3247  -0.4409
C       -2.4336  -1.1502  1.0615
N       1.4957  0.0779  -1.3213
N       1.0942  -1.5439  0.8842
N       -1.1354  -1.2827  -1.0002
N       -1.4503  -0.0663  1.3222
H       2.9649  -2.4624  0.4002
H       1.7068  -2.6526  -0.7900
H       -3.0816  -0.5134  -0.8878
H       -3.0096  -2.2550  -0.7077
H       1.7275  1.0565  -1.3464
H       1.2488  -0.1746  -2.2581
H       -1.8847  0.8390  1.2710
H       -1.0610  -0.1284  2.2446
H       -2.0786  -2.0544  1.5356
H       -3.3963  -0.9150  1.4888
H       0.6090  -2.3487  1.2306
H       1.5234  -1.0927  1.6742
H       3.3158  -0.9886  -1.6215
H       3.1996  -0.0856  -0.1345
H       -0.7421  -2.2044  -0.9943
H       -1.1869  -0.9816  -1.9542
