27

Co      -0.0009  -0.0119  -0.0011
Cl      -1.1103  1.6437  -1.2319
Cl      1.1787  1.4672  1.3816
C       2.6858  -0.7227  -0.8150
C       2.1569  -1.9535  -0.1092
C       -2.5625  -1.3208  -0.4422
C       -2.4356  -1.1675  1.0603
N       1.5101  0.0571  -1.2981
N       1.1107  -1.4938  0.8584
N       -1.1760  -1.3269  -1.0254
N       -1.4875  -0.0536  1.3185
H       2.9435  -2.4904  0.4006
H       1.6956  -2.6332  -0.8111
H       -3.0861  -0.4811  -0.8669
H       -3.0884  -2.2243  -0.7096
H       1.7372  1.0349  -1.3650
H       1.2369  -0.2270  -2.2164
H       -1.9384  0.8377  1.2047
H       -1.1403  -0.0677  2.2604
H       -2.0379  -2.0657  1.5102
H       -3.3955  -0.9758  1.5109
H       0.6032  -2.2791  1.2181
H       1.5538  -1.0434  1.6396
H       3.3411  -0.9853  -1.6299
H       3.2350  -0.0987  -0.1296
H       -0.8191  -2.2642  -1.0442
H       -1.2294  -1.0051  -1.9729
