27

Co      0.0138  0.0313  -0.0051
Cl      -1.0769  1.5845  -1.1985
Cl      1.1429  1.4096  1.3430
C       2.6266  -0.7211  -0.7969
C       2.1231  -1.9114  -0.0915
C       -2.5130  -1.2918  -0.4429
C       -2.4057  -1.1581  1.0598
N       1.4952  0.0727  -1.3023
N       1.1068  -1.4963  0.8375
N       -1.1507  -1.3568  -1.0601
N       -1.5112  -0.0155  1.3779
H       2.9373  -2.4247  0.3946
H       1.6858  -2.5996  -0.7984
H       -2.9968  -0.4212  -0.8476
H       -3.0991  -2.1568  -0.7097
H       1.7596  1.0350  -1.4189
H       1.2062  -0.2474  -2.2063
H       -1.9822  0.8661  1.2970
H       -1.1570  -0.0645  2.3116
H       -1.9867  -2.0474  1.5094
H       -3.3940  -1.0196  1.4769
H       0.5715  -2.2873  1.1374
H       1.5199  -1.0889  1.6546
H       3.2526  -1.0519  -1.6097
H       3.2187  -0.0955  -0.1501
H       -0.8091  -2.2968  -1.0532
H       -1.2183  -1.0626  -2.0168
