27

Co      0.0334  0.0020  0.0063
Cl      -1.1011  1.6390  -1.2372
Cl      1.1369  1.4103  1.3423
C       2.6058  -0.7055  -0.7945
C       2.0917  -1.8868  -0.1203
C       -2.4812  -1.3005  -0.4237
C       -2.4281  -1.1325  1.0624
N       1.5005  0.0410  -1.3080
N       1.0903  -1.4891  0.8600
N       -1.1203  -1.3427  -1.0530
N       -1.4969  -0.0621  1.3934
H       2.9256  -2.3740  0.3575
H       1.6500  -2.5925  -0.8047
H       -3.0121  -0.4859  -0.8804
H       -3.0158  -2.2132  -0.6373
H       1.7431  1.0054  -1.4428
H       1.2002  -0.2995  -2.2030
H       -1.9248  0.8413  1.2983
H       -1.1703  -0.1225  2.3387
H       -2.0808  -2.0428  1.5306
H       -3.4268  -0.9457  1.4312
H       0.5748  -2.2955  1.1536
H       1.5228  -1.0990  1.6755
H       3.3071  -0.9961  -1.5610
H       3.1285  -0.0912  -0.0861
H       -0.7980  -2.2882  -1.1197
H       -1.2138  -0.9886  -1.9875
