27

Co      -0.0219  0.0066  -0.0151
Cl      -1.0879  1.6044  -1.2083
Cl      1.1873  1.4738  1.3929
C       2.6965  -0.7288  -0.8010
C       2.1554  -1.9507  -0.1246
C       -2.5607  -1.3171  -0.4361
C       -2.4383  -1.1697  1.0561
N       1.5306  0.0413  -1.3227
N       1.1201  -1.4848  0.8481
N       -1.1811  -1.3234  -1.0282
N       -1.5053  -0.0522  1.3343
H       2.8874  -2.4975  0.4582
H       1.7337  -2.6320  -0.8501
H       -3.1293  -0.4865  -0.8226
H       -3.0324  -2.2334  -0.7612
H       1.7254  1.0265  -1.3653
H       1.1717  -0.2350  -2.2166
H       -1.9241  0.8542  1.2273
H       -1.1000  -0.0804  2.2517
H       -2.0555  -2.0853  1.4829
H       -3.3858  -0.9608  1.5252
H       0.5851  -2.2526  1.1999
H       1.4943  -0.9597  1.6251
H       3.3259  -0.9294  -1.6577
H       3.2614  -0.1397  -0.0959
H       -0.7515  -2.2330  -1.0200
H       -1.2081  -0.9836  -1.9693
