27

Co      -0.0009  -0.0154  0.0006
Cl      -1.1035  1.6334  -1.2302
Cl      1.1736  1.4638  1.3747
C       2.6750  -0.7266  -0.8174
C       2.1563  -1.9421  -0.1046
C       -2.5539  -1.3248  -0.4337
C       -2.4351  -1.1538  1.0574
N       1.5157  0.0696  -1.3026
N       1.1050  -1.5018  0.8635
N       -1.1771  -1.3222  -1.0396
N       -1.4806  -0.0536  1.3299
H       2.9045  -2.4545  0.4836
H       1.7501  -2.6521  -0.8132
H       -3.1361  -0.5102  -0.8318
H       -3.0156  -2.2546  -0.7407
H       1.7117  1.0566  -1.3018
H       1.1438  -0.1626  -2.2068
H       -1.8810  0.8605  1.2088
H       -1.0897  -0.0781  2.2524
H       -2.0794  -2.0702  1.5036
H       -3.3825  -0.9132  1.5136
H       0.5566  -2.2786  1.1720
H       1.4623  -1.0067  1.6669
H       3.2621  -0.9531  -1.6999
H       3.2867  -0.1447  -0.1451
H       -0.7584  -2.2334  -1.0813
H       -1.2147  -0.9356  -1.9655
