27

Co      -0.0381  -0.0155  -0.0006
Cl      -1.0921  1.6176  -1.2190
Cl      1.1764  1.4705  1.3766
C       2.7113  -0.7394  -0.8464
C       2.1755  -1.9426  -0.0954
C       -2.5444  -1.3090  -0.4392
C       -2.4353  -1.1684  1.0610
N       1.5408  0.0656  -1.3111
N       1.0643  -1.4963  0.8143
N       -1.1408  -1.2675  -0.9671
N       -1.4756  -0.0605  1.3054
H       2.9535  -2.4262  0.4819
H       1.7734  -2.6758  -0.7813
H       -3.0847  -0.4859  -0.8722
H       -3.0235  -2.2332  -0.7325
H       1.7712  1.0473  -1.3114
H       1.2898  -0.1598  -2.2546
H       -1.9262  0.8303  1.2030
H       -1.1150  -0.0738  2.2405
H       -2.0407  -2.0688  1.5119
H       -3.3891  -0.9644  1.5184
H       0.5611  -2.2989  1.1401
H       1.4695  -1.0580  1.6240
H       3.3258  -1.0501  -1.6777
H       3.3069  -0.1158  -0.1989
H       -0.7459  -2.1902  -0.9460
H       -1.1691  -0.9758  -1.9256
