27

Co      0.0012  0.0013  -0.0040
Cl      -1.0809  1.6064  -1.2085
Cl      1.1485  1.4280  1.3561
C       2.6425  -0.6919  -0.8142
C       2.1076  -1.9227  -0.1011
C       -2.4937  -1.2867  -0.4490
C       -2.3945  -1.1479  1.0611
N       1.4874  0.0787  -1.3440
N       1.0552  -1.5082  0.8770
N       -1.1152  -1.3506  -1.0405
N       -1.4764  -0.0236  1.3689
H       2.9021  -2.4586  0.3899
H       1.6483  -2.5961  -0.8104
H       -2.9740  -0.4201  -0.8686
H       -3.0675  -2.1582  -0.7200
H       1.7073  1.0524  -1.4383
H       1.2114  -0.2379  -2.2542
H       -1.9333  0.8660  1.2798
H       -1.1200  -0.0620  2.3027
H       -1.9868  -2.0440  1.5059
H       -3.3730  -0.9923  1.4875
H       0.5268  -2.3042  1.1751
H       1.4778  -1.1099  1.6943
H       3.3194  -0.9766  -1.6031
H       3.1713  -0.0549  -0.1283
H       -0.7737  -2.2907  -1.0290
H       -1.1619  -1.0540  -1.9960
