27

Co      0.0012  -0.0019  -0.0025
Cl      -1.0741  1.5962  -1.2068
Cl      1.1433  1.4246  1.3493
C       2.5987  -0.7046  -0.8324
C       2.0950  -1.8747  -0.0912
C       -2.4724  -1.2864  -0.4378
C       -2.3922  -1.1225  1.0563
N       1.4989  0.0793  -1.3124
N       1.0431  -1.5129  0.8571
N       -1.1099  -1.3297  -1.0488
N       -1.4655  -0.0389  1.3664
H       2.9907  -2.3121  0.3462
H       1.6530  -2.6170  -0.7377
H       -2.9638  -0.4662  -0.9323
H       -3.0586  -2.1881  -0.5894
H       1.7852  1.0381  -1.4119
H       1.3127  -0.2202  -2.2553
H       -1.9423  0.8433  1.3085
H       -1.1566  -0.1044  2.3165
H       -1.9914  -2.0093  1.5259
H       -3.3958  -0.9848  1.4364
H       0.5757  -2.3562  1.1421
H       1.5146  -1.1914  1.6900
H       3.3049  -1.0982  -1.5599
H       3.1335  -0.0509  -0.1689
H       -0.8355  -2.2944  -1.0873
H       -1.2161  -1.0417  -2.0065
