27

Co      0.0260  0.0249  0.0185
Cl      -1.0848  1.5976  -1.2127
Cl      1.1215  1.3876  1.3150
C       2.6493  -0.7099  -0.8387
C       2.1341  -1.9239  -0.0806
C       -2.5265  -1.3011  -0.4464
C       -2.4090  -1.1507  1.0560
N       1.4928  0.0985  -1.3024
N       1.0566  -1.4990  0.8635
N       -1.1387  -1.3176  -1.0195
N       -1.4676  -0.0368  1.3383
H       2.9346  -2.4110  0.4474
H       1.7056  -2.6463  -0.7633
H       -3.0420  -0.4628  -0.8753
H       -3.0564  -2.2019  -0.7088
H       1.7364  1.0680  -1.3774
H       1.1835  -0.1827  -2.2133
H       -1.9231  0.8523  1.2363
H       -1.1294  -0.0652  2.2777
H       -2.0097  -2.0508  1.5030
H       -3.3744  -0.9679  1.5037
H       0.5000  -2.2931  1.1256
H       1.4649  -1.1302  1.7047
H       3.2635  -1.0201  -1.6723
H       3.2475  -0.0884  -0.1926
H       -0.7852  -2.2507  -1.0264
H       -1.1844  -1.0007  -1.9694
