27

Co      -0.0021  -0.0146  0.0016
Cl      -1.1091  1.6424  -1.2307
Cl      1.1775  1.4660  1.3791
C       2.7233  -0.7106  -0.8182
C       2.1759  -2.0016  -0.0987
C       -2.5826  -1.3342  -0.4597
C       -2.4394  -1.1804  1.0664
N       1.4751  0.0696  -1.2918
N       1.0894  -1.4696  0.8489
N       -1.1709  -1.3065  -1.0023
N       -1.4608  -0.0481  1.2951
H       2.9050  -2.5973  0.4402
H       1.6896  -2.6423  -0.8281
H       -3.0896  -0.4715  -0.8625
H       -3.1030  -2.2253  -0.7788
H       1.6735  1.0544  -1.3655
H       1.2003  -0.2253  -2.2075
H       -1.9159  0.8428  1.1783
H       -1.1031  -0.0456  2.2343
H       -2.0431  -2.0735  1.5294
H       -3.3825  -0.9570  1.5407
H       0.5481  -2.2190  1.2421
H       1.5423  -1.0001  1.6158
H       3.3578  -0.9281  -1.6663
H       3.2656  -0.0708  -0.1391
H       -0.7898  -2.2349  -0.9994
H       -1.1969  -0.9930  -1.9535
