27

Co      0.0041  0.0333  0.0005
Cl      -1.0712  1.5863  -1.1988
Cl      1.1387  1.4096  1.3421
C       2.6462  -0.6956  -0.8204
C       2.1195  -1.9373  -0.0942
C       -2.5137  -1.2988  -0.4605
C       -2.3990  -1.1533  1.0550
N       1.4684  0.0713  -1.3113
N       1.0470  -1.4918  0.8478
N       -1.1193  -1.3289  -1.0102
N       -1.4533  -0.0392  1.3377
H       2.9551  -2.4570  0.3549
H       1.6385  -2.6191  -0.7805
H       -2.9705  -0.4394  -0.9256
H       -3.1100  -2.1741  -0.6741
H       1.7350  1.0312  -1.4797
H       1.2686  -0.2911  -2.2310
H       -1.9528  0.8351  1.2903
H       -1.1294  -0.0945  2.2833
H       -1.9747  -2.0380  1.5137
H       -3.3797  -1.0081  1.4840
H       0.5405  -2.2922  1.1771
H       1.5431  -1.1545  1.6584
H       3.3614  -1.0183  -1.5666
H       3.1415  -0.0228  -0.1380
H       -0.8175  -2.2842  -0.9667
H       -1.1807  -1.1039  -1.9900
