27

Co      0.0043  0.0284  0.0107
Cl      -1.0744  1.5930  -1.2120
Cl      1.1199  1.3801  1.3169
C       2.6022  -0.7065  -0.8166
C       2.1016  -1.8876  -0.0988
C       -2.4815  -1.2998  -0.4409
C       -2.3990  -1.1184  1.0480
N       1.4895  0.0628  -1.2861
N       1.0739  -1.4937  0.8554
N       -1.1080  -1.2941  -1.0244
N       -1.4429  -0.0572  1.3501
H       2.9916  -2.3428  0.3284
H       1.6433  -2.6168  -0.7492
H       -3.0063  -0.5072  -0.9501
H       -3.0223  -2.2294  -0.5841
H       1.7809  1.0169  -1.4301
H       1.2862  -0.2705  -2.2138
H       -1.9151  0.8326  1.3233
H       -1.1253  -0.1474  2.2951
H       -2.0194  -2.0144  1.5227
H       -3.3937  -0.9495  1.4367
H       0.6105  -2.3239  1.1792
H       1.5721  -1.1545  1.6646
H       3.3176  -1.0709  -1.5491
H       3.1237  -0.0594  -0.1365
H       -0.8100  -2.2480  -1.0484
H       -1.2077  -1.0136  -1.9836
