27

Co      0.0361  0.0307  0.0054
Cl      -1.0744  1.5916  -1.2107
Cl      1.1356  1.4145  1.3397
C       2.6065  -0.7156  -0.8003
C       2.1113  -1.9041  -0.0832
C       -2.5120  -1.3242  -0.4417
C       -2.4309  -1.1455  1.0579
N       1.4698  0.0674  -1.2981
N       1.0554  -1.4880  0.8036
N       -1.1377  -1.3360  -1.0333
N       -1.4663  -0.0582  1.3666
H       2.9189  -2.3830  0.4454
H       1.7120  -2.6222  -0.7852
H       -3.0322  -0.4941  -0.8793
H       -3.0458  -2.2269  -0.6921
H       1.7300  1.0270  -1.4405
H       1.1600  -0.2713  -2.1907
H       -1.9019  0.8439  1.3124
H       -1.1130  -0.1396  2.2986
H       -2.0927  -2.0482  1.5491
H       -3.4145  -0.9185  1.4465
H       0.4796  -2.2757  1.0455
H       1.4438  -1.1295  1.6600
H       3.2245  -1.0504  -1.6178
H       3.2035  -0.0851  -0.1633
H       -0.7815  -2.2671  -1.0505
H       -1.2083  -1.0221  -1.9836
