27

Co      0.0126  0.0375  -0.0056
Cl      -1.0753  1.5960  -1.2085
Cl      1.1456  1.4209  1.3504
C       2.6497  -0.7050  -0.8143
C       2.1341  -1.9542  -0.0980
C       -2.5122  -1.3172  -0.4541
C       -2.4275  -1.1533  1.0651
N       1.4569  0.0543  -1.2848
N       1.0508  -1.4792  0.8187
N       -1.1225  -1.3342  -1.0244
N       -1.4664  -0.0538  1.3654
H       2.9635  -2.4586  0.3778
H       1.6687  -2.6474  -0.7807
H       -2.9788  -0.4674  -0.9270
H       -3.1019  -2.1996  -0.6605
H       1.7276  1.0115  -1.4763
H       1.2436  -0.3211  -2.1969
H       -1.9535  0.8276  1.3334
H       -1.1415  -0.1320  2.3119
H       -2.0428  -2.0398  1.5519
H       -3.4207  -0.9796  1.4538
H       0.5278  -2.2662  1.1541
H       1.5452  -1.1365  1.6275
H       3.3628  -1.0006  -1.5700
H       3.1398  -0.0344  -0.1245
H       -0.8192  -2.2890  -1.0132
H       -1.2079  -1.0872  -1.9963
