27

Co      0.0017  -0.0057  0.0015
Cl      -1.0842  1.6005  -1.2075
Cl      1.1467  1.4163  1.3487
C       2.6183  -0.7081  -0.8019
C       2.0944  -1.8775  -0.1189
C       -2.5078  -1.2838  -0.4309
C       -2.3956  -1.1347  1.0466
N       1.5151  0.0528  -1.3042
N       1.1021  -1.4721  0.8668
N       -1.1414  -1.3076  -1.0343
N       -1.4783  -0.0447  1.3272
H       2.9256  -2.3728  0.3573
H       1.6435  -2.5849  -0.7981
H       -3.0553  -0.4740  -0.8768
H       -3.0224  -2.2061  -0.6485
H       1.7568  1.0234  -1.3842
H       1.2384  -0.2441  -2.2184
H       -1.9248  0.8488  1.2093
H       -1.1452  -0.0641  2.2687
H       -1.9893  -2.0406  1.4758
H       -3.3676  -0.9773  1.4867
H       0.6274  -2.2823  1.2142
H       1.5482  -1.0331  1.6501
H       3.3046  -1.0125  -1.5776
H       3.1600  -0.0995  -0.1024
H       -0.8048  -2.2491  -1.0660
H       -1.2116  -0.9771  -1.9776
