27

Co      0.0332  0.0037  -0.0024
Cl      -1.0910  1.6221  -1.2222
Cl      1.1505  1.4364  1.3606
C       2.6036  -0.7096  -0.8052
C       2.0948  -1.8841  -0.1148
C       -2.4922  -1.2947  -0.4253
C       -2.4236  -1.1421  1.0601
N       1.4999  0.0455  -1.3129
N       1.0627  -1.4965  0.8394
N       -1.1308  -1.3657  -1.0494
N       -1.5031  -0.0594  1.3831
H       2.9301  -2.3418  0.3924
H       1.6839  -2.6156  -0.7928
H       -3.0025  -0.4642  -0.8742
H       -3.0493  -2.1924  -0.6466
H       1.7479  1.0098  -1.4388
H       1.1976  -0.2842  -2.2101
H       -1.9398  0.8370  1.2760
H       -1.1793  -0.1052  2.3293
H       -2.0566  -2.0498  1.5144
H       -3.4175  -0.9719  1.4456
H       0.5311  -2.3067  1.0980
H       1.4716  -1.1284  1.6786
H       3.2933  -1.0107  -1.5761
H       3.1380  -0.0913  -0.1078
H       -0.8151  -2.3145  -1.0873
H       -1.2159  -1.0416  -1.9953
