27

Co      -0.0180  -0.0175  -0.0273
Cl      -1.0819  1.5950  -1.2054
Cl      1.1830  1.4755  1.3899
C       2.7206  -0.7131  -0.8282
C       2.1721  -1.9953  -0.0883
C       -2.5585  -1.3310  -0.4462
C       -2.4648  -1.1805  1.0853
N       1.4844  0.0837  -1.3110
N       1.0659  -1.4624  0.8362
N       -1.1460  -1.2438  -0.9898
N       -1.4842  -0.0508  1.3196
H       2.9037  -2.5621  0.4765
H       1.7089  -2.6607  -0.8052
H       -3.0934  -0.4850  -0.8487
H       -3.0367  -2.2398  -0.7867
H       1.6897  1.0700  -1.3384
H       1.2367  -0.1740  -2.2470
H       -1.9348  0.8420  1.2120
H       -1.1115  -0.0548  2.2521
H       -2.0935  -2.0706  1.5739
H       -3.4243  -0.9419  1.5193
H       0.5316  -2.2129  1.2372
H       1.5026  -0.9700  1.6001
H       3.3500  -0.9480  -1.6740
H       3.2704  -0.0718  -0.1579
H       -0.7366  -2.1616  -1.0141
H       -1.1940  -0.9098  -1.9345
