27

Co      0.0110  0.0336  0.0012
Cl      -1.0813  1.6050  -1.2120
Cl      1.1285  1.3928  1.3273
C       2.6077  -0.7159  -0.8090
C       2.1187  -1.9064  -0.1079
C       -2.4816  -1.2783  -0.4390
C       -2.3968  -1.1408  1.0536
N       1.4777  0.0437  -1.2598
N       1.0760  -1.4895  0.8202
N       -1.1055  -1.3362  -1.0172
N       -1.4782  -0.0488  1.3609
H       3.0023  -2.3460  0.3471
H       1.6821  -2.6470  -0.7596
H       -2.9499  -0.4392  -0.9232
H       -3.0780  -2.1654  -0.6145
H       1.7721  0.9966  -1.4288
H       1.2621  -0.3039  -2.1793
H       -1.9711  0.8259  1.2985
H       -1.1765  -0.1061  2.3147
H       -1.9807  -2.0327  1.5044
H       -3.3961  -1.0182  1.4504
H       0.5962  -2.3083  1.1476
H       1.5693  -1.1503  1.6312
H       3.3247  -1.0461  -1.5493
H       3.1169  -0.0691  -0.1164
H       -0.8258  -2.2989  -0.9889
H       -1.1950  -1.1088  -1.9953
