27

Co      -0.0058  -0.0267  -0.0054
Cl      -1.1125  1.6496  -1.2323
Cl      1.1843  1.4830  1.3893
C       2.7256  -0.7188  -0.8517
C       2.1761  -1.9764  -0.1115
C       -2.5542  -1.3019  -0.4398
C       -2.4396  -1.1794  1.0730
N       1.5173  0.0645  -1.3066
N       1.0575  -1.4907  0.8545
N       -1.1534  -1.3299  -1.0061
N       -1.5064  -0.0495  1.3277
H       2.9376  -2.4886  0.4604
H       1.7339  -2.6860  -0.7963
H       -3.0490  -0.4409  -0.8570
H       -3.0935  -2.1894  -0.7367
H       1.7202  1.0513  -1.3354
H       1.2403  -0.1868  -2.2350
H       -1.9650  0.8328  1.1675
H       -1.1776  -0.0208  2.2795
H       -2.0201  -2.0767  1.5049
H       -3.3983  -1.0119  1.5330
H       0.5312  -2.2729  1.1954
H       1.4891  -1.0564  1.6505
H       3.3880  -0.9400  -1.6754
H       3.2542  -0.0928  -0.1494
H       -0.8039  -2.2715  -1.0141
H       -1.1927  -1.0169  -1.9577
