27

Co      0.0348  0.0150  0.0091
Cl      -1.0967  1.6233  -1.2301
Cl      1.1361  1.4121  1.3332
C       2.6409  -0.7143  -0.8335
C       2.1453  -1.9401  -0.0801
C       -2.5176  -1.3205  -0.4406
C       -2.4290  -1.1421  1.0682
N       1.4787  0.0956  -1.2836
N       1.0699  -1.5131  0.8662
N       -1.1480  -1.3515  -1.0702
N       -1.4823  -0.0379  1.3833
H       2.9555  -2.4163  0.4457
H       1.7189  -2.6654  -0.7585
H       -3.0343  -0.4853  -0.8767
H       -3.0671  -2.2184  -0.6796
H       1.7253  1.0640  -1.3608
H       1.1623  -0.1830  -2.1936
H       -1.9223  0.8598  1.3018
H       -1.1384  -0.0980  2.3223
H       -2.0677  -2.0394  1.5479
H       -3.4142  -0.9400  1.4631
H       0.5070  -2.3030  1.1275
H       1.4765  -1.1398  1.7066
H       3.2533  -1.0046  -1.6737
H       3.2366  -0.0946  -0.1834
H       -0.8090  -2.2905  -1.1357
H       -1.2316  -0.9907  -2.0047
