27

Co      0.0025  0.0303  0.0090
Cl      -1.0858  1.6020  -1.2105
Cl      1.1315  1.3940  1.3258
C       2.6628  -0.7130  -0.8211
C       2.1432  -1.9405  -0.0972
C       -2.5223  -1.2896  -0.4491
C       -2.4005  -1.1585  1.0543
N       1.4963  0.0765  -1.3005
N       1.0865  -1.5005  0.8623
N       -1.1324  -1.3235  -1.0114
N       -1.4773  -0.0309  1.3403
H       2.9388  -2.4548  0.4146
H       1.6978  -2.6382  -0.7926
H       -3.0205  -0.4347  -0.8689
H       -3.0671  -2.1762  -0.7256
H       1.7357  1.0470  -1.3918
H       1.2012  -0.2230  -2.2097
H       -1.9459  0.8533  1.2493
H       -1.1247  -0.0608  2.2753
H       -1.9772  -2.0577  1.4844
H       -3.3654  -1.0027  1.5133
H       0.5573  -2.2904  1.1778
H       1.5161  -1.0923  1.6714
H       3.3054  -0.9910  -1.6423
H       3.2262  -0.0902  -0.1479
H       -0.7722  -2.2561  -0.9713
H       -1.1663  -1.0481  -1.9746
