27

Co      -0.0293  -0.0324  -0.0115
Cl      -1.0956  1.6238  -1.2169
Cl      1.1771  1.4700  1.3780
C       2.7136  -0.7184  -0.8615
C       2.1788  -1.9710  -0.0994
C       -2.5259  -1.2866  -0.4419
C       -2.4108  -1.1598  1.0720
N       1.5083  0.0865  -1.2895
N       1.0517  -1.4935  0.8596
N       -1.1346  -1.3140  -1.0248
N       -1.4902  -0.0241  1.3350
H       2.9505  -2.4577  0.4809
H       1.7491  -2.7030  -0.7695
H       -3.0284  -0.4320  -0.8600
H       -3.0648  -2.1775  -0.7270
H       1.7145  1.0757  -1.2668
H       1.2400  -0.1180  -2.2362
H       -1.9503  0.8586  1.1916
H       -1.1450  -0.0047  2.2783
H       -1.9804  -2.0519  1.5038
H       -3.3731  -1.0047  1.5298
H       0.5447  -2.2818  1.2142
H       1.4780  -1.0381  1.6487
H       3.3468  -0.9512  -1.7049
H       3.2719  -0.0992  -0.1780
H       -0.7794  -2.2524  -1.0390
H       -1.1812  -0.9920  -1.9732
