27

Co      0.0373  0.0366  0.0012
Cl      -1.0824  1.6031  -1.2136
Cl      1.1420  1.4192  1.3490
C       2.6150  -0.7127  -0.7903
C       2.1071  -1.9085  -0.0945
C       -2.5132  -1.3156  -0.4422
C       -2.4317  -1.1580  1.0611
N       1.4843  0.0589  -1.3245
N       1.0774  -1.5030  0.8262
N       -1.1436  -1.3681  -1.0459
N       -1.4972  -0.0484  1.3879
H       2.9165  -2.4227  0.3974
H       1.6792  -2.5923  -0.8113
H       -3.0026  -0.4576  -0.8654
H       -3.0855  -2.1914  -0.7036
H       1.7430  1.0173  -1.4936
H       1.1816  -0.3089  -2.2098
H       -1.9472  0.8457  1.3282
H       -1.1453  -0.1262  2.3222
H       -2.0670  -2.0570  1.5371
H       -3.4228  -0.9696  1.4497
H       0.5085  -2.2930  1.0748
H       1.4775  -1.1436  1.6745
H       3.2653  -1.0404  -1.5838
H       3.1813  -0.0762  -0.1335
H       -0.8011  -2.3064  -1.0460
H       -1.2115  -1.0715  -2.0015
