27

Co      0.0350  -0.0056  0.0010
Cl      -1.0800  1.6003  -1.2125
Cl      1.1349  1.4100  1.3419
C       2.5850  -0.6956  -0.8067
C       2.0728  -1.8654  -0.1068
C       -2.4766  -1.2929  -0.4264
C       -2.4069  -1.1196  1.0590
N       1.4892  0.0671  -1.3099
N       1.0616  -1.4769  0.8650
N       -1.1253  -1.3401  -1.0764
N       -1.4838  -0.0434  1.3833
H       2.9110  -2.3345  0.3799
H       1.6392  -2.5887  -0.7798
H       -3.0142  -0.4823  -0.8803
H       -3.0162  -2.2068  -0.6249
H       1.7325  1.0328  -1.4144
H       1.1884  -0.2475  -2.2132
H       -1.9123  0.8585  1.2771
H       -1.1597  -0.0921  2.3272
H       -2.0465  -2.0249  1.5236
H       -3.4032  -0.9414  1.4378
H       0.5410  -2.2852  1.1429
H       1.4821  -1.0924  1.6895
H       3.2655  -1.0096  -1.5821
H       3.1320  -0.0822  -0.1172
H       -0.8121  -2.2879  -1.1682
H       -1.2280  -0.9631  -2.0039
