27

Co      0.0231  0.0142  0.0255
Cl      -1.0866  1.6166  -1.2281
Cl      1.1276  1.4032  1.3270
C       2.6660  -0.7098  -0.8315
C       2.1274  -1.9214  -0.0962
C       -2.4938  -1.3152  -0.4450
C       -2.4269  -1.1396  1.0647
N       1.4890  0.0600  -1.3027
N       1.0215  -1.4600  0.8048
N       -1.1118  -1.3369  -1.0343
N       -1.4676  -0.0505  1.3892
H       2.8919  -2.4176  0.4774
H       1.7143  -2.6373  -0.7926
H       -3.0049  -0.4828  -0.8891
H       -3.0300  -2.2169  -0.6964
H       1.7123  1.0286  -1.4326
H       1.1691  -0.2724  -2.1961
H       -1.9000  0.8516  1.3121
H       -1.1310  -0.1162  2.3302
H       -2.0826  -2.0438  1.5484
H       -3.4110  -0.9242  1.4522
H       0.4378  -2.2407  1.0535
H       1.4208  -1.1069  1.6584
H       3.2976  -1.0019  -1.6544
H       3.2371  -0.0799  -0.1718
H       -0.7647  -2.2721  -1.0777
H       -1.1725  -0.9912  -1.9730
