27

Co      0.0378  0.0248  0.0072
Cl      -1.0702  1.5801  -1.2027
Cl      1.1251  1.3915  1.3278
C       2.5987  -0.6976  -0.7994
C       2.0898  -1.8968  -0.0797
C       -2.5051  -1.3184  -0.4513
C       -2.4148  -1.1368  1.0597
N       1.4534  0.0764  -1.2906
N       1.0602  -1.4604  0.8240
N       -1.1311  -1.3150  -1.0461
N       -1.4539  -0.0422  1.3554
H       2.9389  -2.4117  0.3499
H       1.6127  -2.5765  -0.7700
H       -2.9940  -0.4831  -0.9205
H       -3.0855  -2.2110  -0.6393
H       1.7401  1.0284  -1.4793
H       1.2438  -0.2990  -2.2034
H       -1.9318  0.8427  1.3094
H       -1.1440  -0.1163  2.3044
H       -2.0411  -2.0189  1.5649
H       -3.4132  -0.9506  1.4360
H       0.5362  -2.2548  1.1364
H       1.5458  -1.1303  1.6436
H       3.2757  -1.0814  -1.5539
H       3.1458  -0.0299  -0.1571
H       -0.8392  -2.2713  -1.0943
H       -1.2351  -1.0130  -1.9996
