27

Co      -0.0241  -0.0127  -0.0133
Cl      -1.0931  1.6179  -1.2135
Cl      1.1925  1.4845  1.3978
C       2.7243  -0.7109  -0.8127
C       2.1758  -2.0052  -0.1032
C       -2.5808  -1.3360  -0.4623
C       -2.4333  -1.1753  1.0640
N       1.4727  0.0639  -1.2932
N       1.0920  -1.4644  0.8429
N       -1.1751  -1.3042  -1.0148
N       -1.4561  -0.0431  1.2953
H       2.9030  -2.6043  0.4382
H       1.6891  -2.6430  -0.8340
H       -3.0966  -0.4787  -0.8672
H       -3.0988  -2.2308  -0.7721
H       1.6705  1.0497  -1.3627
H       1.2102  -0.2303  -2.2126
H       -1.9122  0.8498  1.2034
H       -1.0780  -0.0567  2.2260
H       -2.0347  -2.0667  1.5275
H       -3.3763  -0.9541  1.5387
H       0.5674  -2.2117  1.2655
H       1.5500  -0.9666  1.5923
H       3.3692  -0.9165  -1.6560
H       3.2533  -0.0690  -0.1241
H       -0.7854  -2.2302  -1.0054
H       -1.2070  -0.9982  -1.9682
