27

Co      -0.0281  -0.0123  -0.0152
Cl      -1.0888  1.6091  -1.2075
Cl      1.1917  1.4883  1.3982
C       2.7463  -0.7245  -0.8206
C       2.1821  -1.9928  -0.1093
C       -2.5681  -1.3116  -0.4484
C       -2.4432  -1.1946  1.0707
N       1.5100  0.0570  -1.3249
N       1.0686  -1.4633  0.8117
N       -1.1577  -1.3048  -0.9844
N       -1.5003  -0.0411  1.3187
H       2.8502  -2.5707  0.5401
H       1.7675  -2.6606  -0.8567
H       -3.0915  -0.4352  -0.7995
H       -3.0521  -2.1965  -0.8559
H       1.6736  1.0523  -1.3420
H       1.1587  -0.2018  -2.2277
H       -1.9310  0.8558  1.1739
H       -1.0987  -0.0213  2.2405
H       -2.0443  -2.1011  1.5025
H       -3.3785  -0.9767  1.5613
H       0.4897  -2.2022  1.1651
H       1.4266  -0.9365  1.5977
H       3.3360  -0.9020  -1.7164
H       3.3242  -0.1173  -0.1398
H       -0.7085  -2.2081  -0.9364
H       -1.1462  -0.9905  -1.9362
