27

Co      -0.0219  0.0096  -0.0166
Cl      -1.0834  1.6074  -1.2098
Cl      1.1843  1.4738  1.3944
C       2.6838  -0.7160  -0.8018
C       2.1426  -1.9537  -0.1200
C       -2.5412  -1.3216  -0.4459
C       -2.4361  -1.1637  1.0592
N       1.5050  0.0369  -1.3233
N       1.0908  -1.4863  0.8368
N       -1.1541  -1.3234  -1.0184
N       -1.4819  -0.0597  1.3403
H       2.9185  -2.5005  0.3985
H       1.6876  -2.6230  -0.8342
H       -3.0645  -0.4850  -0.8784
H       -3.0628  -2.2259  -0.7143
H       1.7286  1.0115  -1.4345
H       1.2399  -0.2922  -2.2309
H       -1.9318  0.8369  1.2784
H       -1.1063  -0.1157  2.2690
H       -2.0546  -2.0656  1.5161
H       -3.4025  -0.9662  1.4920
H       0.5823  -2.2676  1.2023
H       1.5323  -1.0329  1.6160
H       3.3765  -0.9613  -1.5913
H       3.1899  -0.0809  -0.0924
H       -0.7797  -2.2541  -1.0005
H       -1.2045  -1.0370  -1.9769
