27

Co      0.0336  0.0135  0.0082
Cl      -1.0981  1.6226  -1.2208
Cl      1.1331  1.4018  1.3292
C       2.6333  -0.7063  -0.8409
C       2.1336  -1.9288  -0.1059
C       -2.5182  -1.2822  -0.4397
C       -2.4001  -1.1453  1.0567
N       1.4732  0.0674  -1.2447
N       1.0627  -1.4811  0.8617
N       -1.1372  -1.3466  -1.0342
N       -1.4801  -0.0450  1.3320
H       3.0053  -2.3670  0.3665
H       1.6753  -2.6802  -0.7362
H       -2.9906  -0.4430  -0.9211
H       -3.1160  -2.1722  -0.6067
H       1.7479  1.0294  -1.3722
H       1.2381  -0.2409  -2.1704
H       -1.9740  0.8245  1.2045
H       -1.2104  -0.0465  2.3010
H       -1.9610  -2.0357  1.4888
H       -3.3839  -1.0292  1.4890
H       0.5713  -2.2906  1.1964
H       1.5713  -1.1427  1.6653
H       3.3482  -0.9902  -1.6016
H       3.1357  -0.0668  -0.1330
H       -0.8810  -2.3189  -1.0561
H       -1.2306  -1.0720  -1.9977
