27

Co      -0.0241  -0.0200  -0.0118
Cl      -1.0821  1.5979  -1.2021
Cl      1.1804  1.4686  1.3826
C       2.6699  -0.7189  -0.8196
C       2.1512  -1.9443  -0.1010
C       -2.5525  -1.3103  -0.4471
C       -2.4051  -1.1499  1.0519
N       1.4877  0.0697  -1.2715
N       1.0899  -1.4680  0.8395
N       -1.1688  -1.2979  -1.0281
N       -1.4533  -0.0389  1.2890
H       2.9355  -2.4551  0.4383
H       1.7098  -2.6512  -0.7894
H       -3.0963  -0.4859  -0.8744
H       -3.0599  -2.2277  -0.7026
H       1.7129  1.0511  -1.2979
H       1.2211  -0.1777  -2.2037
H       -1.9033  0.8542  1.1806
H       -1.0926  -0.0465  2.2229
H       -1.9967  -2.0459  1.4966
H       -3.3545  -0.9551  1.5238
H       0.5978  -2.2490  1.2301
H       1.5306  -0.9848  1.6057
H       3.3005  -0.9796  -1.6550
H       3.2394  -0.1003  -0.1457
H       -0.8006  -2.2300  -1.0422
H       -1.2223  -0.9776  -1.9766
