27

Co      0.0058  0.0284  0.0037
Cl      -1.0643  1.5743  -1.1988
Cl      1.1300  1.3956  1.3317
C       2.5961  -0.7041  -0.8037
C       2.0884  -1.8768  -0.1094
C       -2.4924  -1.2999  -0.4357
C       -2.3975  -1.1191  1.0411
N       1.4962  0.0575  -1.3076
N       1.0751  -1.4881  0.8590
N       -1.1266  -1.3087  -1.0353
N       -1.4490  -0.0580  1.3460
H       2.9292  -2.3420  0.3806
H       1.6640  -2.6067  -0.7826
H       -3.0574  -0.5135  -0.9056
H       -2.9894  -2.2394  -0.6294
H       1.7498  1.0207  -1.4216
H       1.1992  -0.2633  -2.2094
H       -1.8826  0.8477  1.2950
H       -1.0920  -0.1391  2.2744
H       -2.0338  -2.0326  1.4915
H       -3.3732  -0.9245  1.4587
H       0.5737  -2.3015  1.1557
H       1.5022  -1.0915  1.6743
H       3.2800  -1.0118  -1.5805
H       3.1399  -0.0917  -0.1099
H       -0.7750  -2.2414  -1.0542
H       -1.2007  -0.9910  -1.9824
