27

Co      -0.0332  -0.0021  0.0007
Cl      -1.0858  1.6019  -1.2089
Cl      1.1639  1.4422  1.3605
C       2.7180  -0.7132  -0.8502
C       2.1697  -1.9691  -0.1061
C       -2.5544  -1.3071  -0.4502
C       -2.4134  -1.1565  1.0541
N       1.5136  0.0765  -1.3012
N       1.0699  -1.4823  0.8741
N       -1.1492  -1.2729  -0.9921
N       -1.4523  -0.0481  1.2907
H       2.9367  -2.4888  0.4485
H       1.7140  -2.6770  -0.7861
H       -3.1040  -0.4901  -0.8883
H       -3.0337  -2.2364  -0.7195
H       1.7221  1.0622  -1.3183
H       1.2418  -0.1659  -2.2344
H       -1.9078  0.8434  1.1866
H       -1.0903  -0.0547  2.2245
H       -1.9973  -2.0595  1.4820
H       -3.3541  -0.9645  1.5461
H       0.5738  -2.2678  1.2531
H       1.5197  -1.0195  1.6462
H       3.3747  -0.9411  -1.6799
H       3.2561  -0.0931  -0.1515
H       -0.7638  -2.1984  -0.9809
H       -1.1774  -0.9662  -1.9448
