27

Co      -0.0314  -0.0100  -0.0099
Cl      -1.0943  1.6191  -1.2148
Cl      1.1937  1.4869  1.4003
C       2.6894  -0.7227  -0.8043
C       2.1496  -1.9440  -0.1203
C       -2.5692  -1.3205  -0.4416
C       -2.4224  -1.1624  1.0461
N       1.5338  0.0541  -1.3386
N       1.1223  -1.5113  0.8786
N       -1.1872  -1.3226  -1.0232
N       -1.4751  -0.0534  1.3039
H       2.8938  -2.4987  0.4363
H       1.7169  -2.6181  -0.8477
H       -3.1475  -0.4993  -0.8359
H       -3.0316  -2.2465  -0.7553
H       1.7228  1.0433  -1.3495
H       1.1898  -0.2006  -2.2429
H       -1.8884  0.8570  1.2019
H       -1.0616  -0.0806  2.2176
H       -2.0357  -2.0794  1.4665
H       -3.3566  -0.9430  1.5392
H       0.6083  -2.2942  1.2258
H       1.4977  -0.9869  1.6564
H       3.3191  -0.9411  -1.6556
H       3.2595  -0.1318  -0.1062
H       -0.7552  -2.2313  -1.0072
H       -1.2012  -0.9854  -1.9651
