27

Co      0.0229  0.0106  0.0155
Cl      -1.0938  1.6121  -1.2165
Cl      1.1288  1.3963  1.3261
C       2.6310  -0.7203  -0.8224
C       2.1095  -1.8756  -0.1093
C       -2.5096  -1.2707  -0.4266
C       -2.4074  -1.1559  1.0517
N       1.5329  0.0582  -1.3096
N       1.0775  -1.4866  0.8443
N       -1.1300  -1.3174  -0.9976
N       -1.5056  -0.0500  1.3362
H       2.9405  -2.3343  0.4016
H       1.6958  -2.6157  -0.7802
H       -3.0239  -0.4369  -0.8615
H       -3.0411  -2.1734  -0.6774
H       1.7869  1.0251  -1.3946
H       1.2376  -0.2340  -2.2197
H       -1.9654  0.8318  1.1876
H       -1.1973  -0.0454  2.2881
H       -1.9851  -2.0627  1.4674
H       -3.3815  -1.0193  1.4974
H       0.5637  -2.3040  1.1172
H       1.4920  -1.1086  1.6760
H       3.2906  -1.0534  -1.6096
H       3.2042  -0.1118  -0.1473
H       -0.7982  -2.2602  -0.9917
H       -1.1793  -1.0207  -1.9538
