27

Co      0.0117  0.0138  -0.0050
Cl      -1.0821  1.5980  -1.2037
Cl      1.1481  1.4203  1.3479
C       2.6421  -0.7071  -0.8107
C       2.1362  -1.9446  -0.0993
C       -2.5247  -1.2928  -0.4489
C       -2.3951  -1.1520  1.0565
N       1.4632  0.0740  -1.2708
N       1.0834  -1.4804  0.8508
N       -1.1476  -1.3500  -1.0489
N       -1.4755  -0.0231  1.3401
H       2.9304  -2.4528  0.4218
H       1.6920  -2.6457  -0.7916
H       -3.0171  -0.4318  -0.8637
H       -3.0933  -2.1705  -0.7103
H       1.6976  1.0460  -1.3656
H       1.1602  -0.2262  -2.1775
H       -1.9385  0.8625  1.2333
H       -1.1284  -0.0425  2.2779
H       -1.9752  -2.0470  1.4932
H       -3.3629  -0.9947  1.5069
H       0.5495  -2.2557  1.1909
H       1.5183  -1.0504  1.6454
H       3.2846  -0.9544  -1.6405
H       3.1965  -0.0858  -0.1277
H       -0.8076  -2.2905  -1.0412
H       -1.2040  -1.0523  -2.0049
