27

Co      0.0195  0.0248  0.0358
Cl      -1.0803  1.6009  -1.2180
Cl      1.1150  1.3761  1.3110
C       2.6250  -0.7020  -0.8122
C       2.0959  -1.8862  -0.0809
C       -2.5037  -1.3203  -0.4606
C       -2.3967  -1.1277  1.0464
N       1.4841  0.0741  -1.3094
N       1.0596  -1.4711  0.8310
N       -1.1268  -1.3193  -1.0371
N       -1.4287  -0.0401  1.3477
H       2.9372  -2.4179  0.3426
H       1.6117  -2.5563  -0.7777
H       -2.9974  -0.4951  -0.9429
H       -3.0782  -2.2219  -0.6330
H       1.7639  1.0273  -1.4928
H       1.2768  -0.3007  -2.2229
H       -1.9045  0.8481  1.3243
H       -1.1133  -0.1326  2.2938
H       -2.0164  -2.0130  1.5428
H       -3.3854  -0.9416  1.4421
H       0.5452  -2.2819  1.1195
H       1.5425  -1.1641  1.6648
H       3.2924  -1.1193  -1.5646
H       3.1901  -0.0335  -0.1859
H       -0.8303  -2.2735  -1.0704
H       -1.2069  -1.0210  -1.9909
