27

Co      -0.0041  -0.0311  -0.0037
Cl      -1.1038  1.6412  -1.2258
Cl      1.1709  1.4600  1.3789
C       2.6708  -0.7064  -0.7974
C       2.1235  -1.9296  -0.1235
C       -2.5234  -1.2870  -0.4359
C       -2.4115  -1.1647  1.0599
N       1.5098  0.0511  -1.3338
N       1.0900  -1.4840  0.8610
N       -1.1377  -1.3347  -1.0145
N       -1.4940  -0.0396  1.3347
H       2.8531  -2.4885  0.4444
H       1.6921  -2.5980  -0.8580
H       -3.0505  -0.4269  -0.8093
H       -3.0275  -2.1767  -0.7853
H       1.6808  1.0411  -1.3676
H       1.1539  -0.2259  -2.2295
H       -1.9103  0.8632  1.1713
H       -1.1181  -0.0224  2.2642
H       -2.0167  -2.0793  1.4781
H       -3.3621  -0.9732  1.5279
H       0.5487  -2.2557  1.1914
H       1.4608  -0.9811  1.6513
H       3.3071  -0.9147  -1.6445
H       3.2264  -0.1128  -0.0929
H       -0.7347  -2.2530  -1.0025
H       -1.1483  -0.9936  -1.9556
