27

Co      0.0273  0.0324  0.0143
Cl      -1.0884  1.6121  -1.2171
Cl      1.1249  1.3923  1.3258
C       2.6154  -0.7080  -0.7979
C       2.1034  -1.8979  -0.0891
C       -2.5038  -1.2925  -0.4470
C       -2.4024  -1.1572  1.0534
N       1.4980  0.0767  -1.3409
N       1.0838  -1.5258  0.8584
N       -1.1264  -1.3573  -1.0231
N       -1.4848  -0.0330  1.3688
H       2.9229  -2.4219  0.3745
H       1.6622  -2.5742  -0.8073
H       -2.9796  -0.4234  -0.8632
H       -3.0811  -2.1605  -0.7218
H       1.7543  1.0376  -1.4783
H       1.2073  -0.2680  -2.2369
H       -1.9473  0.8539  1.2952
H       -1.1348  -0.0904  2.3030
H       -2.0005  -2.0552  1.5028
H       -3.3842  -0.9982  1.4760
H       0.5352  -2.3322  1.1009
H       1.4864  -1.1725  1.7093
H       3.2585  -1.0627  -1.5897
H       3.1962  -0.0732  -0.1533
H       -0.7822  -2.2945  -0.9847
H       -1.1663  -1.0858  -1.9873
