27

Co      -0.0347  -0.0085  -0.0044
Cl      -1.1045  1.6395  -1.2263
Cl      1.1871  1.4818  1.3890
C       2.7325  -0.7229  -0.8249
C       2.1911  -1.9994  -0.0989
C       -2.5710  -1.3187  -0.4563
C       -2.4226  -1.1821  1.0595
N       1.5139  0.0812  -1.3367
N       1.0985  -1.5331  0.8756
N       -1.1670  -1.3328  -1.0038
N       -1.4733  -0.0338  1.3155
H       2.8955  -2.5785  0.4936
H       1.7592  -2.6595  -0.8438
H       -3.0958  -0.4481  -0.8201
H       -3.0669  -2.2059  -0.8358
H       1.6864  1.0761  -1.3258
H       1.1669  -0.1531  -2.2478
H       -1.9020  0.8679  1.2115
H       -1.0500  -0.0479  2.2279
H       -2.0197  -2.0893  1.4859
H       -3.3524  -0.9640  1.5633
H       0.5424  -2.2976  1.2042
H       1.4580  -1.0242  1.6717
H       3.3160  -0.9201  -1.7209
H       3.3260  -0.1174  -0.1562
H       -0.7199  -2.2363  -0.9421
H       -1.1486  -1.0266  -1.9576
