27

Co      0.0232  -0.0024  0.0109
Cl      -1.0901  1.6208  -1.2240
Cl      1.1283  1.4061  1.3306
C       2.6252  -0.6928  -0.8581
C       2.1067  -1.9000  -0.0939
C       -2.4786  -1.2847  -0.4382
C       -2.4012  -1.1276  1.0630
N       1.4940  0.0893  -1.3111
N       1.0174  -1.5124  0.8863
N       -1.1013  -1.3336  -1.0378
N       -1.4673  -0.0454  1.3677
H       2.9855  -2.3368  0.3655
H       1.6520  -2.6495  -0.7276
H       -2.9611  -0.4605  -0.9363
H       -3.0628  -2.1856  -0.5975
H       1.7593  1.0529  -1.4090
H       1.2825  -0.2065  -2.2488
H       -1.9431  0.8348  1.2733
H       -1.1831  -0.0831  2.3292
H       -1.9983  -2.0191  1.5221
H       -3.3992  -0.9892  1.4543
H       0.5247  -2.3477  1.1549
H       1.4982  -1.2176  1.7279
H       3.3470  -1.0346  -1.5934
H       3.1328  -0.0410  -0.1695
H       -0.8384  -2.3020  -1.0900
H       -1.1988  -1.0292  -1.9904
