27

Co      0.0021  0.0114  0.0002
Cl      -1.0722  1.5785  -1.1989
Cl      1.1399  1.4127  1.3404
C       2.6609  -0.7078  -0.8411
C       2.1252  -1.9155  -0.0847
C       -2.5046  -1.2944  -0.4425
C       -2.4117  -1.1476  1.0670
N       1.5142  0.0993  -1.3371
N       1.0514  -1.4974  0.8688
N       -1.1306  -1.3178  -1.0481
N       -1.4948  -0.0197  1.3763
H       2.9207  -2.4196  0.4356
H       1.6854  -2.6221  -0.7732
H       -3.0162  -0.4489  -0.8647
H       -3.0486  -2.1859  -0.7064
H       1.7514  1.0717  -1.3907
H       1.2336  -0.1739  -2.2593
H       -1.9528  0.8679  1.2847
H       -1.1432  -0.0589  2.3111
H       -2.0076  -2.0401  1.5223
H       -3.3944  -0.9870  1.4853
H       0.5136  -2.2967  1.1463
H       1.4580  -1.1061  1.6989
H       3.2925  -1.0314  -1.6550
H       3.2447  -0.0799  -0.1901
H       -0.7781  -2.2533  -1.0825
H       -1.1942  -0.9792  -1.9900
