27

Co      -0.0280  -0.0274  -0.0298
Cl      -1.0878  1.6163  -1.2048
Cl      1.1894  1.4912  1.4032
C       2.6630  -0.7086  -0.8164
C       2.1348  -1.9410  -0.1043
C       -2.5290  -1.2810  -0.4416
C       -2.4101  -1.1766  1.0631
N       1.5057  0.0729  -1.3453
N       1.0697  -1.5275  0.8656
N       -1.1290  -1.3090  -0.9789
N       -1.4864  -0.0420  1.3062
H       2.9345  -2.4612  0.4034
H       1.6947  -2.6306  -0.8095
H       -3.0149  -0.4098  -0.8486
H       -3.0699  -2.1594  -0.7586
H       1.7254  1.0560  -1.3662
H       1.2743  -0.1836  -2.2849
H       -1.9530  0.8390  1.1781
H       -1.1239  -0.0269  2.2411
H       -1.9765  -2.0720  1.4880
H       -3.3680  -1.0207  1.5324
H       0.5829  -2.3310  1.2124
H       1.4917  -1.0754  1.6572
H       3.3395  -0.9873  -1.6068
H       3.1908  -0.0719  -0.1280
H       -0.7597  -2.2427  -0.9116
H       -1.1511  -1.0642  -1.9535
