27

Co      0.0247  0.0007  0.0051
Cl      -1.0955  1.6191  -1.2207
Cl      1.1535  1.4376  1.3591
C       2.6235  -0.7177  -0.8218
C       2.1049  -1.8771  -0.1079
C       -2.5201  -1.2971  -0.4259
C       -2.4233  -1.1481  1.0543
N       1.5334  0.0618  -1.3288
N       1.0782  -1.5087  0.8633
N       -1.1557  -1.3458  -1.0399
N       -1.5050  -0.0567  1.3532
H       2.9466  -2.3400  0.3854
H       1.6838  -2.6089  -0.7806
H       -3.0491  -0.4766  -0.8734
H       -3.0570  -2.2076  -0.6460
H       1.7877  1.0288  -1.4113
H       1.2447  -0.2319  -2.2398
H       -1.9492  0.8349  1.2333
H       -1.1829  -0.0852  2.3003
H       -2.0318  -2.0537  1.4939
H       -3.4044  -0.9866  1.4727
H       0.5651  -2.3322  1.1209
H       1.4878  -1.1365  1.7008
H       3.2955  -1.0550  -1.5967
H       3.1873  -0.1033  -0.1440
H       -0.8319  -2.2924  -1.0819
H       -1.2311  -1.0131  -1.9834
