27

Co      0.0241  0.0129  0.0133
Cl      -1.0950  1.6133  -1.2178
Cl      1.1300  1.3976  1.3286
C       2.6685  -0.7059  -0.8329
C       2.1236  -1.9188  -0.0939
C       -2.5150  -1.2841  -0.4416
C       -2.4161  -1.1664  1.0677
N       1.5200  0.0879  -1.3426
N       1.0660  -1.4992  0.8765
N       -1.1298  -1.3339  -1.0236
N       -1.5132  -0.0248  1.3692
H       2.9142  -2.4485  0.4068
H       1.6654  -2.6027  -0.7947
H       -2.9955  -0.4126  -0.8497
H       -3.0802  -2.1548  -0.7319
H       1.7526  1.0593  -1.4295
H       1.2305  -0.2150  -2.2526
H       -1.9822  0.8540  1.2373
H       -1.1871  -0.0306  2.3161
H       -1.9904  -2.0607  1.5037
H       -3.3955  -1.0276  1.5027
H       0.5183  -2.2955  1.1487
H       1.4829  -1.1242  1.7086
H       3.3171  -1.0207  -1.6362
H       3.2348  -0.0765  -0.1692
H       -0.7910  -2.2751  -1.0303
H       -1.1739  -1.0184  -1.9736
