27

Co      -0.0058  -0.0316  -0.0022
Cl      -1.1056  1.6394  -1.2306
Cl      1.1792  1.4796  1.3824
C       2.6873  -0.7343  -0.8339
C       2.1640  -1.9361  -0.0997
C       -2.5413  -1.3059  -0.4284
C       -2.4361  -1.1657  1.0659
N       1.5302  0.0728  -1.3111
N       1.0748  -1.5045  0.8365
N       -1.1588  -1.3239  -1.0189
N       -1.5024  -0.0480  1.3377
H       2.9057  -2.4209  0.5260
H       1.7899  -2.6716  -0.8028
H       -3.0947  -0.4685  -0.8132
H       -3.0208  -2.2167  -0.7663
H       1.7236  1.0629  -1.2781
H       1.1674  -0.1311  -2.2269
H       -1.9104  0.8570  1.1817
H       -1.1256  -0.0412  2.2672
H       -2.0631  -2.0782  1.5040
H       -3.3882  -0.9479  1.5199
H       0.5163  -2.2883  1.1132
H       1.4063  -1.0268  1.6633
H       3.2555  -0.9829  -1.7222
H       3.3190  -0.1503  -0.1794
H       -0.7446  -2.2379  -1.0426
H       -1.1852  -0.9546  -1.9518
