27

Co      0.0260  0.0265  0.0185
Cl      -1.0803  1.6006  -1.2142
Cl      1.1185  1.3876  1.3165
C       2.6069  -0.7109  -0.8080
C       2.1076  -1.8935  -0.0778
C       -2.5026  -1.3011  -0.4465
C       -2.4016  -1.1447  1.0502
N       1.4836  0.0852  -1.3144
N       1.0617  -1.5108  0.8359
N       -1.1206  -1.3252  -1.0105
N       -1.4540  -0.0428  1.3474
H       2.9253  -2.3822  0.4225
H       1.6950  -2.6041  -0.7811
H       -3.0092  -0.4598  -0.8771
H       -3.0414  -2.1960  -0.7103
H       1.7413  1.0474  -1.4252
H       1.1858  -0.2304  -2.2178
H       -1.9020  0.8522  1.2794
H       -1.1024  -0.1038  2.2794
H       -2.0261  -2.0464  1.5148
H       -3.3758  -0.9470  1.4729
H       0.5063  -2.3150  1.0715
H       1.4526  -1.1584  1.6947
H       3.2176  -1.0727  -1.6237
H       3.2185  -0.0820  -0.1831
H       -0.7626  -2.2553  -0.9892
H       -1.1631  -1.0364  -1.9694
