27

Co      0.0055  0.0308  0.0083
Cl      -1.0757  1.5942  -1.2133
Cl      1.1211  1.3813  1.3194
C       2.6022  -0.7052  -0.8202
C       2.0991  -1.8851  -0.0964
C       -2.4742  -1.2998  -0.4397
C       -2.4014  -1.1171  1.0529
N       1.5005  0.0714  -1.3058
N       1.0788  -1.5121  0.8762
N       -1.1105  -1.3125  -1.0490
N       -1.4601  -0.0474  1.3783
H       2.9977  -2.3465  0.3112
H       1.6310  -2.6058  -0.7480
H       -2.9904  -0.4999  -0.9465
H       -3.0346  -2.2196  -0.5768
H       1.7956  1.0243  -1.4473
H       1.3009  -0.2620  -2.2346
H       -1.9347  0.8412  1.3613
H       -1.1388  -0.1511  2.3221
H       -2.0194  -2.0095  1.5312
H       -3.4072  -0.9630  1.4244
H       0.6154  -2.3496  1.1829
H       1.5733  -1.1840  1.6928
H       3.3226  -1.0832  -1.5442
H       3.1237  -0.0557  -0.1427
H       -0.8210  -2.2701  -1.0901
H       -1.2212  -1.0185  -2.0033
