27

Co      0.0032  0.0119  0.0027
Cl      -1.0708  1.5907  -1.2035
Cl      1.1400  1.4181  1.3426
C       2.5982  -0.7052  -0.8111
C       2.1088  -1.9034  -0.0714
C       -2.5008  -1.3083  -0.4577
C       -2.3868  -1.1323  1.0496
N       1.4584  0.0896  -1.2925
N       1.0576  -1.5093  0.8340
N       -1.1239  -1.3238  -1.0327
N       -1.4268  -0.0340  1.3321
H       2.9773  -2.3893  0.3610
H       1.6559  -2.6065  -0.7538
H       -2.9799  -0.4689  -0.9308
H       -3.0890  -2.1979  -0.6455
H       1.7472  1.0464  -1.4192
H       1.2709  -0.2324  -2.2278
H       -1.9089  0.8498  1.3071
H       -1.0926  -0.1135  2.2713
H       -1.9917  -2.0132  1.5382
H       -3.3730  -0.9561  1.4546
H       0.5630  -2.3268  1.1364
H       1.5276  -1.1753  1.6622
H       3.2555  -1.1055  -1.5753
H       3.1676  -0.0376  -0.1866
H       -0.8214  -2.2771  -1.0254
H       -1.2046  -1.0685  -2.0023
