27

Co      -0.0012  0.0010  0.0007
Cl      -1.0940  1.6210  -1.2160
Cl      1.1611  1.4415  1.3649
C       2.6721  -0.7124  -0.7923
C       2.1332  -1.9397  -0.1256
C       -2.5434  -1.2945  -0.4406
C       -2.4138  -1.1701  1.0493
N       1.4998  0.0392  -1.3123
N       1.0932  -1.4721  0.8386
N       -1.1463  -1.3220  -0.9865
N       -1.4777  -0.0552  1.3080
H       2.8585  -2.4870  0.4615
H       1.7164  -2.6209  -0.8576
H       -3.0834  -0.4462  -0.8209
H       -3.0246  -2.1972  -0.7893
H       1.6813  1.0245  -1.3818
H       1.1248  -0.2609  -2.1950
H       -1.8981  0.8482  1.1637
H       -1.0958  -0.0481  2.2335
H       -2.0205  -2.0914  1.4586
H       -3.3507  -0.9641  1.5425
H       0.5396  -2.2346  1.1729
H       1.4671  -0.9735  1.6290
H       3.3060  -0.9020  -1.6488
H       3.2261  -0.1215  -0.0822
H       -0.7264  -2.2328  -0.9312
H       -1.1421  -1.0186  -1.9405
