27

Co      -0.0320  0.0029  -0.0000
Cl      -1.0912  1.6128  -1.2199
Cl      1.1720  1.4560  1.3713
C       2.7365  -0.7173  -0.8404
C       2.1820  -1.9918  -0.0849
C       -2.5624  -1.3414  -0.4596
C       -2.4429  -1.1670  1.0685
N       1.5135  0.0921  -1.3357
N       1.0829  -1.5063  0.8735
N       -1.1589  -1.2824  -1.0138
N       -1.4614  -0.0410  1.3306
H       2.9260  -2.5741  0.4447
H       1.7031  -2.6433  -0.8064
H       -3.0977  -0.5033  -0.8790
H       -3.0575  -2.2524  -0.7613
H       1.7250  1.0752  -1.3701
H       1.2590  -0.1724  -2.2673
H       -1.9135  0.8560  1.2798
H       -1.0690  -0.0959  2.2537
H       -2.0624  -2.0588  1.5478
H       -3.3974  -0.9379  1.5174
H       0.5561  -2.2807  1.2303
H       1.5164  -1.0533  1.6602
H       3.3589  -0.9877  -1.6819
H       3.3053  -0.0748  -0.1864
H       -0.7525  -2.2007  -1.0234
H       -1.1931  -0.9544  -1.9592
