27

Co      -0.0053  -0.0294  -0.0012
Cl      -1.1067  1.6497  -1.2343
Cl      1.1766  1.4713  1.3848
C       2.6814  -0.7123  -0.8051
C       2.1380  -1.9450  -0.1182
C       -2.5377  -1.3124  -0.4412
C       -2.4350  -1.1659  1.0623
N       1.4952  0.0374  -1.3042
N       1.0752  -1.4666  0.8236
N       -1.1362  -1.3016  -0.9849
N       -1.4686  -0.0688  1.3103
H       2.9029  -2.4876  0.4177
H       1.6884  -2.6215  -0.8311
H       -3.0566  -0.4733  -0.8695
H       -3.0453  -2.2195  -0.7316
H       1.7016  1.0181  -1.3888
H       1.2295  -0.2693  -2.2186
H       -1.9085  0.8276  1.1848
H       -1.1266  -0.0714  2.2542
H       -2.0592  -2.0702  1.5203
H       -3.3932  -0.9512  1.5039
H       0.5623  -2.2446  1.1901
H       1.5158  -1.0149  1.6053
H       3.3564  -0.9611  -1.6072
H       3.2025  -0.0813  -0.1058
H       -0.7703  -2.2348  -0.9824
H       -1.1737  -0.9970  -1.9380
