27

Co      -0.0012  -0.0013  0.0040
Cl      -1.0958  1.6175  -1.2225
Cl      1.1659  1.4506  1.3649
C       2.6892  -0.7293  -0.8278
C       2.1620  -1.9473  -0.0998
C       -2.5613  -1.3285  -0.4399
C       -2.4459  -1.1624  1.0598
N       1.5094  0.0601  -1.2835
N       1.0841  -1.4705  0.8248
N       -1.1664  -1.2847  -1.0009
N       -1.4723  -0.0671  1.3082
H       2.9395  -2.4508  0.4560
H       1.7330  -2.6613  -0.7886
H       -3.1157  -0.5158  -0.8772
H       -3.0423  -2.2589  -0.7064
H       1.7425  1.0364  -1.3422
H       1.2263  -0.2105  -2.2037
H       -1.9142  0.8296  1.2045
H       -1.1245  -0.0895  2.2478
H       -2.0737  -2.0652  1.5240
H       -3.4019  -0.9375  1.5059
H       0.5597  -2.2518  1.1676
H       1.5118  -1.0312  1.6205
H       3.3168  -1.0054  -1.6612
H       3.2664  -0.1094  -0.1612
H       -0.7885  -2.2121  -1.0276
H       -1.2197  -0.9538  -1.9458
