27

Co      0.0241  0.0144  0.0133
Cl      -1.0905  1.6163  -1.2193
Cl      1.1270  1.3976  1.3301
C       2.6260  -0.7069  -0.8022
C       2.0971  -1.8884  -0.0912
C       -2.4912  -1.2841  -0.4417
C       -2.4087  -1.1604  1.0618
N       1.5107  0.0746  -1.3547
N       1.0711  -1.5110  0.8489
N       -1.1116  -1.3414  -1.0147
N       -1.4996  -0.0309  1.3783
H       2.9050  -2.4197  0.3819
H       1.6548  -2.5604  -0.8126
H       -2.9626  -0.4096  -0.8515
H       -3.0652  -2.1489  -0.7334
H       1.7575  1.0387  -1.4773
H       1.2327  -0.2627  -2.2570
H       -1.9611  0.8539  1.2804
H       -1.1601  -0.0692  2.3177
H       -2.0068  -2.0563  1.5155
H       -3.3969  -1.0066  1.4718
H       0.5246  -2.3174  1.0945
H       1.4705  -1.1524  1.6987
H       3.2711  -1.0733  -1.5876
H       3.2058  -0.0700  -0.1596
H       -0.7685  -2.2797  -0.9932
H       -1.1526  -1.0541  -1.9736
