27

Co      -0.0262  -0.0249  -0.0280
Cl      -1.0919  1.6242  -1.2163
Cl      1.1928  1.4933  1.4081
C       2.6673  -0.7091  -0.7928
C       2.1283  -1.9413  -0.1217
C       -2.5360  -1.3079  -0.4320
C       -2.4367  -1.1679  1.0614
N       1.5186  0.0534  -1.3633
N       1.0999  -1.5201  0.8801
N       -1.1426  -1.2951  -0.9906
N       -1.4848  -0.0650  1.3208
H       2.8759  -2.4954  0.4289
H       1.6996  -2.6099  -0.8561
H       -3.1021  -0.4768  -0.8213
H       -2.9883  -2.2277  -0.7834
H       1.6978  1.0442  -1.3728
H       1.1940  -0.2084  -2.2722
H       -1.8916  0.8472  1.2056
H       -1.0719  -0.0818  2.2353
H       -2.0736  -2.0873  1.4966
H       -3.3833  -0.9361  1.5220
H       0.5857  -2.3030  1.2264
H       1.4702  -0.9941  1.6597
H       3.3268  -0.9178  -1.6217
H       3.2031  -0.1096  -0.0782
H       -0.7019  -2.2001  -0.9622
H       -1.1558  -0.9718  -1.9375
