27

Co      -0.0248  -0.0055  -0.0285
Cl      -1.0898  1.6218  -1.2124
Cl      1.1942  1.4985  1.4074
C       2.6983  -0.7034  -0.8190
C       2.1675  -2.0045  -0.0907
C       -2.5614  -1.3238  -0.4604
C       -2.4336  -1.1852  1.0685
N       1.4746  0.0864  -1.3464
N       1.0673  -1.5421  0.8767
N       -1.1467  -1.3174  -0.9860
N       -1.4606  -0.0483  1.3098
H       2.9284  -2.5766  0.4267
H       1.7020  -2.6549  -0.8214
H       -3.0458  -0.4455  -0.8632
H       -3.0973  -2.1997  -0.7977
H       1.6816  1.0707  -1.3961
H       1.2312  -0.1952  -2.2754
H       -1.9225  0.8415  1.2380
H       -1.0651  -0.0755  2.2328
H       -2.0339  -2.0780  1.5267
H       -3.3823  -0.9736  1.5361
H       0.5390  -2.3171  1.2284
H       1.4944  -1.0926  1.6680
H       3.3596  -0.9360  -1.6390
H       3.2175  -0.0490  -0.1360
H       -0.7496  -2.2406  -0.9126
H       -1.1598  -1.0720  -1.9605
