27

Co      0.0072  -0.0148  -0.0252
Cl      -1.0847  1.6076  -1.2049
Cl      1.1772  1.4784  1.3882
C       2.6341  -0.7089  -0.8237
C       2.1369  -1.9424  -0.0880
C       -2.5374  -1.2986  -0.4406
C       -2.4172  -1.1656  1.0636
N       1.4726  0.0898  -1.3057
N       1.0549  -1.5226  0.8569
N       -1.1478  -1.3299  -1.0124
N       -1.4763  -0.0452  1.3141
H       2.9483  -2.4183  0.4433
H       1.7221  -2.6682  -0.7736
H       -3.0352  -0.4408  -0.8569
H       -3.0823  -2.1845  -0.7277
H       1.7072  1.0675  -1.3383
H       1.2022  -0.1618  -2.2357
H       -1.9311  0.8416  1.1896
H       -1.1250  -0.0439  2.2518
H       -2.0124  -2.0616  1.5084
H       -3.3790  -0.9824  1.5150
H       0.5277  -2.3170  1.1618
H       1.4613  -1.1043  1.6744
H       3.2753  -0.9840  -1.6438
H       3.1953  -0.0794  -0.1543
H       -0.7937  -2.2667  -0.9921
H       -1.1963  -1.0485  -1.9754
