27

Co      -0.0184  -0.0121  -0.0242
Cl      -1.0888  1.6180  -1.2214
Cl      1.1711  1.4611  1.3791
C       2.7095  -0.7061  -0.8229
C       2.1655  -1.9976  -0.0888
C       -2.5207  -1.3263  -0.4464
C       -2.4620  -1.1725  1.0910
N       1.4812  0.0841  -1.3325
N       1.0630  -1.4969  0.8557
N       -1.1119  -1.2657  -0.9982
N       -1.4856  -0.0477  1.3669
H       2.9082  -2.5696  0.4519
H       1.6979  -2.6508  -0.8136
H       -3.0341  -0.4699  -0.8547
H       -3.0215  -2.2215  -0.7870
H       1.6843  1.0676  -1.3788
H       1.2342  -0.1935  -2.2639
H       -1.9313  0.8498  1.2932
H       -1.1010  -0.0885  2.2945
H       -2.1100  -2.0642  1.5924
H       -3.4387  -0.9359  1.4882
H       0.5251  -2.2580  1.2260
H       1.4938  -1.0314  1.6368
H       3.3569  -0.9425  -1.6530
H       3.2416  -0.0587  -0.1462
H       -0.7065  -2.1841  -1.0125
H       -1.1611  -0.9409  -1.9448
