27

Co      -0.0009  -0.0126  -0.0007
Cl      -1.0990  1.6364  -1.2317
Cl      1.1706  1.4638  1.3762
C       2.6998  -0.7006  -0.8250
C       2.1602  -1.9908  -0.0871
C       -2.5472  -1.3428  -0.4598
C       -2.4391  -1.1595  1.0715
N       1.4662  0.0863  -1.3166
N       1.0592  -1.4974  0.8636
N       -1.1474  -1.3203  -1.0313
N       -1.4477  -0.0458  1.3407
H       2.9032  -2.5680  0.4463
H       1.6859  -2.6411  -0.8130
H       -3.0588  -0.4917  -0.8796
H       -3.0728  -2.2382  -0.7556
H       1.6659  1.0684  -1.3888
H       1.1901  -0.2094  -2.2331
H       -1.8858  0.8567  1.2716
H       -1.0723  -0.0949  2.2708
H       -2.0838  -2.0534  1.5645
H       -3.3996  -0.9134  1.4980
H       0.5036  -2.2594  1.2021
H       1.4900  -1.0659  1.6622
H       3.3343  -0.9401  -1.6650
H       3.2458  -0.0542  -0.1572
H       -0.7683  -2.2474  -1.0588
H       -1.1922  -0.9818  -1.9733
