27

Co      0.0286  0.0143  0.0201
Cl      -1.0921  1.6139  -1.2212
Cl      1.1467  1.4184  1.3468
C       2.6614  -0.7025  -0.8076
C       2.1212  -1.9314  -0.1100
C       -2.5454  -1.3312  -0.4524
C       -2.4184  -1.1408  1.0510
N       1.4784  0.0535  -1.2872
N       1.0812  -1.4460  0.8459
N       -1.1737  -1.3555  -1.0711
N       -1.4596  -0.0458  1.3445
H       2.8902  -2.4834  0.4044
H       1.6481  -2.5997  -0.8172
H       -3.0759  -0.5050  -0.8914
H       -3.0861  -2.2384  -0.6736
H       1.7004  1.0232  -1.4387
H       1.1585  -0.3009  -2.1719
H       -1.8983  0.8554  1.2582
H       -1.1213  -0.0976  2.2856
H       -2.0466  -2.0427  1.5157
H       -3.3847  -0.9338  1.4821
H       0.5283  -2.2133  1.1740
H       1.5278  -1.0376  1.6445
H       3.3215  -0.9576  -1.6218
H       3.2022  -0.0768  -0.1175
H       -0.8392  -2.2971  -1.1347
H       -1.2446  -0.9923  -2.0035
