27

Co      0.0254  -0.0083  0.0193
Cl      -1.0787  1.6012  -1.2133
Cl      1.1337  1.4077  1.3373
C       2.6423  -0.6834  -0.8263
C       2.0941  -1.9097  -0.0924
C       -2.4978  -1.3150  -0.4580
C       -2.4005  -1.1243  1.0614
N       1.4565  0.0738  -1.2934
N       1.0207  -1.4305  0.8331
N       -1.1229  -1.3314  -1.0676
N       -1.4388  -0.0317  1.3585
H       2.9036  -2.4455  0.3746
H       1.5971  -2.5833  -0.7777
H       -2.9814  -0.4799  -0.9347
H       -3.0885  -2.2074  -0.6306
H       1.7002  1.0374  -1.4598
H       1.2410  -0.2898  -2.2094
H       -1.9080  0.8560  1.2834
H       -1.1439  -0.0830  2.3156
H       -2.0193  -2.0062  1.5585
H       -3.3927  -0.9434  1.4474
H       0.4951  -2.2166  1.1625
H       1.5202  -1.0950  1.6427
H       3.3377  -1.0182  -1.5839
H       3.1569  -0.0144  -0.1576
H       -0.8506  -2.2961  -1.1574
H       -1.2237  -0.9863  -2.0061
