27

Co      -0.0262  -0.0082  -0.0107
Cl      -1.1045  1.6395  -1.2263
Cl      1.1871  1.4806  1.3890
C       2.6902  -0.7386  -0.8120
C       2.1794  -1.9623  -0.1142
C       -2.5498  -1.3029  -0.4364
C       -2.4212  -1.1704  1.0557
N       1.5209  0.0529  -1.2954
N       1.1173  -1.5207  0.8448
N       -1.1672  -1.3456  -1.0193
N       -1.4974  -0.0443  1.3301
H       2.9279  -2.4668  0.4858
H       1.7895  -2.6772  -0.8268
H       -3.0900  -0.4541  -0.8185
H       -3.0474  -2.2026  -0.7716
H       1.7197  1.0408  -1.2935
H       1.1597  -0.1768  -2.2031
H       -1.9195  0.8579  1.2095
H       -1.0955  -0.0579  2.2500
H       -2.0242  -2.0840  1.4727
H       -3.3665  -0.9741  1.5336
H       0.5841  -2.3004  1.1716
H       1.4732  -1.0090  1.6406
H       3.2847  -0.9432  -1.6943
H       3.2882  -0.1552  -0.1283
H       -0.7454  -2.2580  -0.9791
H       -1.1809  -1.0338  -1.9707
