27

Co      0.0221  -0.0038  0.0260
Cl      -1.0930  1.6313  -1.2346
Cl      1.1340  1.4151  1.3344
C       2.6289  -0.7154  -0.8199
C       2.1172  -1.8989  -0.0780
C       -2.4895  -1.3207  -0.4507
C       -2.4153  -1.1322  1.0622
N       1.4734  0.0658  -1.2794
N       1.0378  -1.4695  0.7859
N       -1.1153  -1.3364  -1.0426
N       -1.4481  -0.0454  1.3722
H       2.9532  -2.3858  0.4005
H       1.6771  -2.6059  -0.7638
H       -2.9642  -0.4832  -0.9294
H       -3.0818  -2.2104  -0.6367
H       1.7500  1.0222  -1.4352
H       1.2645  -0.2780  -2.2024
H       -1.9135  0.8436  1.3248
H       -1.1447  -0.1248  2.3262
H       -2.0580  -2.0145  1.5796
H       -3.4174  -0.9349  1.4200
H       0.5070  -2.2758  1.0589
H       1.4968  -1.1645  1.6350
H       3.2707  -1.1214  -1.5932
H       3.2115  -0.0488  -0.2048
H       -0.8293  -2.2957  -1.0992
H       -1.2111  -1.0252  -1.9927
