27

Co      -0.0273  -0.0290  -0.0160
Cl      -1.0952  1.6221  -1.2156
Cl      1.1946  1.4898  1.4021
C       2.7248  -0.7115  -0.8303
C       2.1644  -1.9789  -0.1255
C       -2.5597  -1.3141  -0.4436
C       -2.4363  -1.1668  1.0658
N       1.5022  0.0450  -1.2935
N       1.0726  -1.4496  0.8451
N       -1.1586  -1.2917  -1.0063
N       -1.4776  -0.0577  1.3015
H       2.9101  -2.5235  0.4406
H       1.6985  -2.6644  -0.8192
H       -3.0964  -0.4834  -0.8723
H       -3.0561  -2.2309  -0.7234
H       1.6938  1.0340  -1.3382
H       1.2373  -0.2267  -2.2192
H       -1.9259  0.8348  1.1668
H       -1.1285  -0.0440  2.2441
H       -2.0344  -2.0677  1.5066
H       -3.3856  -0.9692  1.5328
H       0.5753  -2.2153  1.2675
H       1.5358  -0.9533  1.5918
H       3.4137  -0.8969  -1.6455
H       3.2192  -0.0860  -0.1003
H       -0.7885  -2.2254  -1.0256
H       -1.2050  -0.9665  -1.9527
