27

Co      -0.0237  0.0097  -0.0183
Cl      -1.0879  1.6061  -1.2066
Cl      1.1908  1.4843  1.3964
C       2.7280  -0.7237  -0.8448
C       2.1832  -1.9876  -0.1157
C       -2.5650  -1.3112  -0.4458
C       -2.4382  -1.1785  1.0650
N       1.5161  0.0554  -1.3061
N       1.0682  -1.4920  0.8470
N       -1.1687  -1.3333  -1.0151
N       -1.5026  -0.0502  1.3295
H       2.9470  -2.4978  0.4584
H       1.7454  -2.6985  -0.8006
H       -3.0729  -0.4600  -0.8696
H       -3.0988  -2.2055  -0.7267
H       1.7325  1.0373  -1.3640
H       1.2359  -0.2183  -2.2264
H       -1.9687  0.8334  1.2231
H       -1.1437  -0.0613  2.2674
H       -2.0154  -2.0770  1.4921
H       -3.3941  -1.0134  1.5334
H       0.5463  -2.2702  1.2039
H       1.5044  -1.0449  1.6329
H       3.4032  -0.9280  -1.6644
H       3.2416  -0.0961  -0.1299
H       -0.8022  -2.2687  -0.9905
H       -1.2101  -1.0520  -1.9769
