27

Co      0.0278  0.0340  0.0168
Cl      -1.0913  1.6189  -1.2274
Cl      1.1271  1.3931  1.3282
C       2.6120  -0.7091  -0.7954
C       2.0966  -1.8884  -0.1200
C       -2.5098  -1.3105  -0.4321
C       -2.4255  -1.1379  1.0445
N       1.5076  0.0363  -1.3145
N       1.0910  -1.4954  0.8571
N       -1.1314  -1.3192  -1.0080
N       -1.4660  -0.0825  1.3473
H       2.9310  -2.3737  0.3600
H       1.6621  -2.5997  -0.8055
H       -3.0632  -0.5161  -0.9017
H       -3.0057  -2.2459  -0.6437
H       1.7593  0.9971  -1.4715
H       1.2002  -0.3212  -2.2013
H       -1.8980  0.8226  1.2810
H       -1.1262  -0.1567  2.2849
H       -2.0749  -2.0573  1.4966
H       -3.4008  -0.9317  1.4580
H       0.5743  -2.3059  1.1400
H       1.5243  -1.1206  1.6799
H       3.3158  -1.0052  -1.5604
H       3.1355  -0.0938  -0.0876
H       -0.7824  -2.2535  -1.0145
H       -1.1942  -1.0135  -1.9591
