27

Co      -0.0106  -0.0130  0.0059
Cl      -1.1091  1.6424  -1.2307
Cl      1.1775  1.4672  1.3791
C       2.7158  -0.7122  -0.8263
C       2.1638  -1.9718  -0.1255
C       -2.5827  -1.3187  -0.4432
C       -2.4289  -1.1687  1.0479
N       1.5179  0.0555  -1.3177
N       1.0916  -1.4923  0.8869
N       -1.1762  -1.3081  -0.9876
N       -1.4597  -0.0698  1.2769
H       2.8825  -2.5197  0.4728
H       1.7283  -2.6617  -0.8387
H       -3.1608  -0.5009  -0.8436
H       -3.0235  -2.2537  -0.7708
H       1.6821  1.0507  -1.3294
H       1.1448  -0.1954  -2.2155
H       -1.8696  0.8399  1.1287
H       -1.0746  -0.0556  2.2033
H       -2.0426  -2.0941  1.4541
H       -3.3465  -0.9339  1.5693
H       0.5524  -2.2599  1.2350
H       1.4801  -0.9837  1.6661
H       3.3563  -0.8653  -1.6939
H       3.2587  -0.1256  -0.1007
H       -0.7471  -2.2168  -0.9681
H       -1.1704  -0.9680  -1.9294
