27

Co      -0.0251  -0.0114  -0.0161
Cl      -1.0900  1.6086  -1.2104
Cl      1.1894  1.4791  1.3972
C       2.7071  -0.7278  -0.8052
C       2.1490  -1.9412  -0.1267
C       -2.5480  -1.3087  -0.4308
C       -2.4446  -1.1729  1.0646
N       1.5433  0.0392  -1.3364
N       1.1074  -1.4700  0.8386
N       -1.1663  -1.3076  -1.0197
N       -1.5200  -0.0501  1.3438
H       2.8694  -2.4954  0.4656
H       1.7263  -2.6183  -0.8554
H       -3.1124  -0.4728  -0.8109
H       -3.0166  -2.2218  -0.7728
H       1.7286  1.0275  -1.3642
H       1.1971  -0.2297  -2.2366
H       -1.9378  0.8542  1.2125
H       -1.1254  -0.0593  2.2665
H       -2.0618  -2.0863  1.4956
H       -3.3985  -0.9692  1.5210
H       0.5746  -2.2378  1.1935
H       1.4784  -0.9396  1.6145
H       3.3386  -0.9400  -1.6556
H       3.2709  -0.1365  -0.1023
H       -0.7377  -2.2182  -1.0284
H       -1.1944  -0.9519  -1.9556
