27

Co      0.0039  0.0112  0.0019
Cl      -1.0677  1.5797  -1.2021
Cl      1.1334  1.4022  1.3384
C       2.6167  -0.7001  -0.7982
C       2.0847  -1.8816  -0.0890
C       -2.4808  -1.3049  -0.4426
C       -2.4096  -1.1328  1.0612
N       1.5032  0.0808  -1.3544
N       1.0740  -1.4917  0.8587
N       -1.1159  -1.3079  -1.0514
N       -1.4742  -0.0293  1.3871
H       2.8922  -2.4223  0.3758
H       1.6276  -2.5467  -0.8068
H       -3.0078  -0.4739  -0.8735
H       -3.0126  -2.2063  -0.6940
H       1.7475  1.0459  -1.4612
H       1.2376  -0.2478  -2.2638
H       -1.9159  0.8714  1.3400
H       -1.1057  -0.1133  2.3128
H       -2.0468  -2.0287  1.5463
H       -3.4027  -0.9398  1.4439
H       0.5497  -2.2941  1.1447
H       1.4859  -1.0941  1.6819
H       3.2658  -1.0648  -1.5819
H       3.1930  -0.0647  -0.1525
H       -0.7555  -2.2386  -1.0926
H       -1.1887  -0.9642  -1.9899
