27

Co      0.0241  0.0170  0.0133
Cl      -1.0992  1.6231  -1.2275
Cl      1.1369  1.4101  1.3369
C       2.6791  -0.7105  -0.8442
C       2.1356  -1.9317  -0.0862
C       -2.5219  -1.3095  -0.4457
C       -2.4420  -1.1664  1.0750
N       1.5165  0.0827  -1.3327
N       1.0560  -1.5002  0.8600
N       -1.1308  -1.3192  -1.0185
N       -1.5050  -0.0443  1.3730
H       2.9702  -2.4513  0.3629
H       1.6494  -2.6152  -0.7666
H       -2.9856  -0.4515  -0.9062
H       -3.1103  -2.1878  -0.6708
H       1.7882  1.0437  -1.4678
H       1.3208  -0.2499  -2.2625
H       -2.0000  0.8270  1.2888
H       -1.2091  -0.0833  2.3330
H       -2.0329  -2.0467  1.5546
H       -3.4401  -1.0191  1.4664
H       0.5369  -2.3101  1.1510
H       1.5390  -1.1875  1.6909
H       3.3713  -1.0793  -1.5940
H       3.2108  -0.0412  -0.1882
H       -0.8376  -2.2790  -1.0519
H       -1.2127  -1.0267  -1.9758
