27

Co      -0.0125  0.0031  -0.0194
Cl      0.0002  -2.2923  -0.2186
Cl      -0.0001  2.2904  0.2208
N       -1.4897  0.1314  -1.3202
N       -1.4832  -0.1295  1.3017
N       1.4710  0.1400  -1.3334
N       1.5429  -0.1377  1.3887
C       -2.7462  0.4053  -0.6112
C       -2.7464  -0.4075  0.6197
C       2.7217  0.3956  -0.6060
C       2.7710  -0.4121  0.6343
H       -1.3286  0.8605  -1.9924
H       -2.7827  1.4585  -0.3814
H       -3.5960  0.1613  -1.2270
H       -3.5885  -0.1467  1.2365
H       -2.7977  -1.4613  0.3990
H       -1.5407  0.7420  1.7916
H       -1.2983  -0.8525  1.9711
H       1.5359  -0.7180  -1.8531
H       1.3207  0.8878  -1.9825
H       3.5745  0.1617  -1.2240
H       2.7533  1.4456  -0.3735
H       2.8175  -1.4642  0.4255
H       3.6554  -0.1368  1.1943
H       1.3883  -0.8597  2.0644
H       1.6172  0.7387  1.8756
H       -1.5573  -0.7354  -1.8134
