27

Co      0.0370  0.0000  0.0000
Cl      -0.0030  -2.3055  -0.2186
Cl      -0.0034  2.3055  0.2187
N       -1.4619  0.1613  -1.3359
N       -1.4619  -0.1614  1.3358
N       1.4284  0.1560  -1.3136
N       1.4283  -0.1557  1.3136
C       -2.7626  0.4113  -0.6394
C       -2.7629  -0.4106  0.6394
C       2.7349  0.4103  -0.6399
C       2.7351  -0.4092  0.6400
H       -1.3245  0.8493  -2.0550
H       -2.8394  1.4660  -0.4323
H       -3.5852  0.1216  -1.2756
H       -3.5852  -0.1205  1.2758
H       -2.8401  -1.4653  0.4324
H       -1.5099  0.7446  1.7750
H       -1.3250  -0.8498  2.0546
H       1.4658  -0.7468  -1.7565
H       1.2641  0.8478  -2.0196
H       3.5461  0.1208  -1.2871
H       2.8136  1.4650  -0.4343
H       2.8145  -1.4639  0.4344
H       3.5460  -0.1192  1.2872
H       1.2621  -0.8478  2.0193
H       1.4653  0.7469  1.7569
H       -1.5102  -0.7450  -1.7747
