27

Co      -0.0370  0.0031  -0.0194
Cl      0.0035  -2.2959  -0.2186
Cl      0.0031  2.2939  0.2208
N       -1.4960  0.1179  -1.3737
N       -1.4894  -0.1160  1.3551
N       1.4903  0.1249  -1.3591
N       1.5622  -0.1225  1.4143
C       -2.7482  0.4154  -0.6223
C       -2.7484  -0.4176  0.6308
C       2.7515  0.4090  -0.6122
C       2.8007  -0.4255  0.6405
H       -1.1785  0.9092  -1.9273
H       -2.7574  1.4629  -0.3658
H       -3.6177  0.2020  -1.2236
H       -3.6126  -0.1874  1.2309
H       -2.7724  -1.4671  0.3834
H       -1.4370  0.7378  1.8840
H       -1.1483  -0.9011  1.9059
H       1.4447  -0.7236  -1.9030
H       1.1902  0.9218  -1.9097
H       3.6126  0.2051  -1.2321
H       2.7607  1.4546  -0.3497
H       2.8249  -1.4732  0.4017
H       3.6935  -0.1802  1.2024
H       1.2601  -0.8936  1.9916
H       1.5260  0.7443  1.9255
H       -1.4514  -0.7312  -1.9058
