27

Co      -0.0125  0.0000  0.0000
Cl      0.0002  -2.2894  -0.2159
Cl      -0.0001  2.2895  0.2160
N       -1.4917  0.1417  -1.3466
N       -1.4524  -0.1418  1.3096
N       1.4729  0.1485  -1.3597
N       1.5121  -0.1482  1.3966
C       -2.7764  0.4123  -0.6334
C       -2.7521  -0.4042  0.6235
C       2.7519  0.4026  -0.6282
C       2.7766  -0.4088  0.6381
H       -1.2750  0.8903  -1.9734
H       -2.8647  1.4602  -0.4054
H       -3.5668  0.1364  -1.3145
H       -3.5249  -0.1402  1.3320
H       -2.8408  -1.4521  0.3883
H       -1.4177  0.7291  1.8108
H       -1.2263  -0.9007  1.9214
H       1.4453  -0.7183  -1.8704
H       1.2671  0.9157  -1.9653
H       3.5454  0.1386  -1.3115
H       2.8334  1.4505  -0.3957
H       2.8588  -1.4568  0.4129
H       3.5895  -0.1321  1.2920
H       1.3163  -0.9060  2.0165
H       1.4938  0.7258  1.8928
H       -1.4648  -0.7368  -1.8325
