27

Co      0.0000  0.0244  0.0017
Cl      0.0002  -2.2822  -0.2130
Cl      -0.0001  2.2486  0.2097
N       -1.4330  0.1535  -1.3619
N       -1.4330  -0.1586  1.3634
N       1.4330  0.1515  -1.3618
N       1.4330  -0.1563  1.3635
C       -2.7695  0.4032  -0.6578
C       -2.7697  -0.4025  0.6561
C       2.7695  0.4031  -0.6579
C       2.7697  -0.4020  0.6563
H       -1.3325  0.9087  -2.0122
H       -2.8325  1.4559  -0.4560
H       -3.5377  0.1437  -1.3763
H       -3.5377  -0.1460  1.3747
H       -2.8331  -1.4566  0.4510
H       -1.5243  0.6604  1.9423
H       -1.3144  -0.9429  1.9763
H       1.5129  -0.6930  -1.8959
H       1.3327  0.9065  -2.0143
H       3.5377  0.1452  -1.3764
H       2.8307  1.4592  -0.4548
H       2.8315  -1.4581  0.4497
H       3.5376  -0.1470  1.3749
H       1.3143  -0.9403  1.9786
H       1.5259  0.6611  1.9401
H       -1.5111  -0.6927  -1.8982
