27

Co      -0.0370  0.0031  -0.0194
Cl      0.0035  -2.2959  -0.2186
Cl      0.0031  2.2939  0.2208
N       -1.4602  0.1332  -1.3529
N       -1.4930  -0.1313  1.3712
N       1.4938  0.1402  -1.3751
N       1.5265  -0.1379  1.3935
C       -2.7359  0.4115  -0.6238
C       -2.7607  -0.4210  0.6422
C       2.7638  0.4124  -0.6235
C       2.7885  -0.4216  0.6420
H       -1.2804  0.8767  -2.0003
H       -2.7429  1.4633  -0.3835
H       -3.5835  0.1989  -1.2559
H       -3.6203  -0.1794  1.2459
H       -2.7824  -1.4748  0.4183
H       -1.5570  0.7378  1.8640
H       -1.2993  -0.8588  2.0305
H       1.5669  -0.7236  -1.8830
H       1.3412  0.8795  -2.0321
H       3.6226  0.1993  -1.2448
H       2.7707  1.4624  -0.3847
H       2.8104  -1.4736  0.4195
H       3.6593  -0.1793  1.2347
H       1.3598  -0.8612  2.0625
H       1.5991  0.7370  1.8834
H       -1.5245  -0.7239  -1.8637
