27

Co      0.0000  0.0000  0.0000
Cl      0.0002  -2.3116  -0.2168
Cl      -0.0001  2.3117  0.2169
N       -1.4709  0.1457  -1.3461
N       -1.4709  -0.1458  1.3460
N       1.4709  0.1456  -1.3461
N       1.4709  -0.1453  1.3461
C       -2.7949  0.4043  -0.6169
C       -2.7951  -0.4036  0.6169
C       2.7950  0.4043  -0.6170
C       2.7951  -0.4032  0.6171
H       -1.3086  0.8947  -1.9913
H       -2.8747  1.4562  -0.4093
H       -3.6256  0.1031  -1.2385
H       -3.6255  -0.1020  1.2386
H       -2.8754  -1.4554  0.4094
H       -1.5408  0.7084  1.8681
H       -1.3090  -0.8952  1.9909
H       1.5410  -0.7091  -1.8674
H       1.3088  0.8944  -1.9916
H       3.6255  0.1027  -1.2372
H       2.8762  1.4562  -0.4100
H       2.8771  -1.4551  0.4100
H       3.6255  -0.1011  1.2373
H       1.3089  -0.8944  1.9912
H       1.5405  0.7091  1.8678
H       -1.5411  -0.7088  -1.8678
