27

Co      0.0000  0.0000  0.0000
Cl      0.0002  -2.2814  -0.2140
Cl      -0.0001  2.2814  0.2141
N       -1.3981  0.1541  -1.3299
N       -1.3981  -0.1542  1.3298
N       1.3981  0.1521  -1.3298
N       1.3980  -0.1518  1.3298
C       -2.7563  0.4021  -0.6636
C       -2.7565  -0.4014  0.6636
C       2.7564  0.4021  -0.6637
C       2.7565  -0.4010  0.6638
H       -1.3200  0.9042  -1.9972
H       -2.7878  1.4616  -0.4796
H       -3.5561  0.1479  -1.3416
H       -3.5538  -0.1468  1.3440
H       -2.7885  -1.4623  0.4796
H       -1.5593  0.6682  1.8976
H       -1.3204  -0.9048  1.9967
H       1.5637  -0.6688  -1.8950
H       1.3202  0.9021  -1.9993
H       3.5561  0.1494  -1.3417
H       2.7861  1.4649  -0.4783
H       2.7869  -1.4638  0.4784
H       3.5560  -0.1478  1.3419
H       1.3203  -0.9021  1.9990
H       1.5632  0.6689  1.8954
H       -1.5618  -0.6685  -1.8973
