27

Co      0.0000  0.0000  0.0000
Cl      0.0002  -2.2840  -0.2122
Cl      -0.0001  2.2840  0.2123
N       -1.4257  0.1630  -1.3212
N       -1.4257  -0.1631  1.3211
N       1.4257  0.1610  -1.3212
N       1.4256  -0.1608  1.3212
C       -2.7977  0.3864  -0.6663
C       -2.7979  -0.3857  0.6663
C       2.7978  0.3863  -0.6664
C       2.7979  -0.3852  0.6665
H       -1.3184  0.9163  -1.9799
H       -2.7753  1.4483  -0.4733
H       -3.6615  0.1630  -1.2744
H       -3.6592  -0.1619  1.2768
H       -2.7759  -1.4490  0.4733
H       -1.4848  0.6807  1.8611
H       -1.3188  -0.9168  1.9794
H       1.4892  -0.6813  -1.8585
H       1.3186  0.9141  -1.9820
H       3.6615  0.1645  -1.2745
H       2.7735  1.4516  -0.4720
H       2.7743  -1.4505  0.4721
H       3.6614  -0.1629  1.2747
H       1.3188  -0.9142  1.9816
H       1.4887  0.6814  1.8589
H       -1.4874  -0.6810  -1.8607
