27

Co      0.0000  -0.0244  -0.0017
Cl      0.0002  -2.2762  -0.2142
Cl      -0.0001  2.3099  0.2177
N       -1.5022  0.1503  -1.3827
N       -1.5022  -0.1454  1.3809
N       1.5023  0.1502  -1.3827
N       1.5022  -0.1449  1.3810
C       -2.7552  0.4259  -0.6393
C       -2.7555  -0.4252  0.6409
C       2.7553  0.4259  -0.6394
C       2.7555  -0.4248  0.6412
H       -1.1601  0.9139  -1.9554
H       -2.8830  1.4763  -0.4293
H       -3.5873  0.0929  -1.2421
H       -3.5895  -0.0884  1.2416
H       -2.8837  -1.4756  0.4343
H       -1.4897  0.7415  1.8534
H       -1.1790  -0.8808  1.9903
H       1.5012  -0.7102  -1.8964
H       1.1603  0.9136  -1.9557
H       3.5873  0.0925  -1.2422
H       2.8831  1.4763  -0.4299
H       2.8840  -1.4752  0.4350
H       3.5872  -0.0876  1.2440
H       1.1790  -0.8800  1.9907
H       1.4872  0.7422  1.8530
H       -1.5012  -0.7099  -1.8968
