27

Co      0.0000  -0.0244  -0.0017
Cl      0.0002  -2.2948  -0.2151
Cl      -0.0001  2.3285  0.2185
N       -1.4843  0.1438  -1.3538
N       -1.4843  -0.1388  1.3520
N       1.4843  0.1437  -1.3537
N       1.4842  -0.1383  1.3520
C       -2.7861  0.4239  -0.6092
C       -2.7864  -0.4232  0.6108
C       2.7862  0.4238  -0.6093
C       2.7864  -0.4227  0.6110
H       -1.2290  0.9098  -1.9490
H       -2.9561  1.4689  -0.3969
H       -3.5523  0.0658  -1.2915
H       -3.5545  -0.0613  1.2911
H       -2.9567  -1.4682  0.4019
H       -1.5266  0.7360  1.8436
H       -1.2480  -0.8766  1.9839
H       1.5381  -0.7047  -1.8867
H       1.2292  0.9095  -1.9492
H       3.5522  0.0654  -1.2902
H       2.9576  1.4689  -0.3975
H       2.9584  -1.4678  0.4026
H       3.5522  -0.0605  1.2920
H       1.2479  -0.8759  1.9842
H       1.5241  0.7367  1.8433
H       -1.5381  -0.7044  -1.8871
