27

Co      0.0000  0.0000  0.0000
Cl      0.0002  -2.2930  -0.2159
Cl      -0.0001  2.2931  0.2160
N       -1.4883  0.1476  -1.3751
N       -1.4883  -0.1477  1.3750
N       1.4884  0.1475  -1.3750
N       1.4883  -0.1473  1.3751
C       -2.7575  0.4213  -0.6443
C       -2.7577  -0.4206  0.6443
C       2.7576  0.4212  -0.6444
C       2.7577  -0.4201  0.6445
H       -1.2692  0.8929  -2.0056
H       -2.8587  1.4760  -0.4515
H       -3.5840  0.1056  -1.2632
H       -3.5840  -0.1045  1.2633
H       -2.8593  -1.4752  0.4515
H       -1.6029  0.6953  1.9084
H       -1.2697  -0.8934  2.0051
H       1.6032  -0.6959  -1.9077
H       1.2694  0.8926  -2.0058
H       3.5840  0.1052  -1.2633
H       2.8588  1.4760  -0.4521
H       2.8596  -1.4749  0.4522
H       3.5839  -0.1036  1.2635
H       1.2696  -0.8927  2.0055
H       1.6027  0.6960  1.9080
H       -1.6032  -0.6957  -1.9080
