27

Co      0.0000  0.0000  0.0000
Cl      0.0002  -2.2717  -0.2170
Cl      -0.0001  2.2718  0.2171
N       -1.5118  0.1356  -1.3334
N       -1.5118  -0.1357  1.3333
N       1.5119  0.1374  -1.3333
N       1.5118  -0.1371  1.3333
C       -2.7640  0.4056  -0.6177
C       -2.7642  -0.4049  0.6177
C       2.7641  0.4056  -0.6178
C       2.7642  -0.4045  0.6179
H       -1.3498  0.8668  -2.0009
H       -2.8078  1.4598  -0.3945
H       -3.6197  0.1508  -1.2221
H       -3.6197  -0.1497  1.2222
H       -2.8085  -1.4577  0.3945
H       -1.5788  0.7302  1.8316
H       -1.3502  -0.8674  2.0005
H       1.5772  -0.7308  -1.8328
H       1.3500  0.8684  -1.9993
H       3.6196  0.1485  -1.2222
H       2.8098  1.4566  -0.3970
H       2.8106  -1.4555  0.3970
H       3.6196  -0.1469  1.2224
H       1.3501  -0.8685  1.9990
H       1.5767  0.7309  1.8331
H       -1.5791  -0.7305  -1.8313
