27

Co      0.0125  0.0000  0.0000
Cl      0.0002  -2.2673  -0.2151
Cl      -0.0001  2.2673  0.2152
N       -1.4662  0.1525  -1.3533
N       -1.5055  -0.1526  1.3900
N       1.4850  0.1456  -1.3400
N       1.4457  -0.1453  1.3032
C       -2.7256  0.4012  -0.6600
C       -2.7504  -0.4079  0.6698
C       2.7502  0.4108  -0.6654
C       2.7258  -0.4023  0.6557
H       -1.2835  0.9065  -1.9837
H       -2.7443  1.4588  -0.4448
H       -3.5664  0.1781  -1.2953
H       -3.6105  -0.1721  1.2758
H       -2.7695  -1.4654  0.4620
H       -1.5528  0.7075  1.9013
H       -1.3330  -0.8972  2.0347
H       1.5234  -0.7195  -1.8403
H       1.2918  0.8804  -1.9922
H       3.5878  0.1751  -1.3000
H       2.7743  1.4684  -0.4558
H       2.7506  -1.4600  0.4386
H       3.5435  -0.1784  1.3198
H       1.2429  -0.8903  1.9403
H       1.4738  0.7123  1.8186
H       -1.5039  -0.7005  -1.8789
