27

Co      -0.0125  -0.0244  -0.0017
Cl      0.0002  -2.2752  -0.2124
Cl      -0.0001  2.3089  0.2159
N       -1.4901  0.1508  -1.3136
N       -1.4901  -0.1459  1.3118
N       1.5106  0.1576  -1.3636
N       1.5106  -0.1523  1.3619
C       -2.8013  0.4055  -0.6366
C       -2.8015  -0.4047  0.6383
C       2.8013  0.4031  -0.6413
C       2.8015  -0.4020  0.6431
H       -1.2963  0.9091  -1.9408
H       -2.8652  1.4602  -0.4272
H       -3.6188  0.1333  -1.2851
H       -3.6187  -0.1288  1.2870
H       -2.8658  -1.4594  0.4322
H       -1.5301  0.7246  1.8052
H       -1.3153  -0.8760  1.9757
H       1.5734  -0.6818  -1.9085
H       1.3375  0.9247  -1.9843
H       3.6415  0.1306  -1.2625
H       2.8585  1.4579  -0.4346
H       2.8593  -1.4568  0.4397
H       3.6414  -0.1257  1.2643
H       1.3562  -0.8911  2.0193
H       1.5594  0.7139  1.8652
H       -1.5438  -0.6930  -1.8486
