27

Co      0.0125  -0.0031  0.0194
Cl      0.0002  -2.3080  -0.2196
Cl      -0.0001  2.3101  0.2177
N       -1.4354  0.1665  -1.3710
N       -1.4420  -0.1687  1.3893
N       1.4542  0.1596  -1.3577
N       1.3822  -0.1614  1.3025
C       -2.7734  0.4030  -0.6681
C       -2.7736  -0.3995  0.6595
C       2.7980  0.4126  -0.6735
C       2.7491  -0.3939  0.6454
H       -1.3559  0.8581  -2.1029
H       -2.7377  1.4641  -0.4618
H       -3.6645  0.1890  -1.2456
H       -3.6696  -0.2014  1.2386
H       -2.7240  -1.4599  0.4442
H       -1.5172  0.7217  1.8501
H       -1.3870  -0.8672  2.1233
H       1.5229  -0.7470  -1.7891
H       1.3642  0.8320  -2.1093
H       3.6859  0.1882  -1.2489
H       2.7692  1.4752  -0.4728
H       2.7066  -1.4544  0.4209
H       3.6048  -0.2099  1.2789
H       1.2947  -0.8603  2.0267
H       1.4406  0.7264  1.7674
H       -1.5034  -0.7290  -1.8277
