27

Co      0.0000  0.0031  -0.0194
Cl      0.0002  -2.2967  -0.2131
Cl      -0.0001  2.2947  0.2152
N       -1.5086  0.1553  -1.3640
N       -1.5414  -0.1534  1.3823
N       1.5087  0.1552  -1.3640
N       1.5413  -0.1529  1.3824
C       -2.7843  0.4027  -0.6288
C       -2.8091  -0.4122  0.6471
C       2.7844  0.4027  -0.6289
C       2.8091  -0.4118  0.6474
H       -1.2313  0.9232  -1.9526
H       -2.8583  1.4520  -0.3984
H       -3.6258  0.1277  -1.2463
H       -3.6648  -0.1082  1.2340
H       -2.8978  -1.4636  0.4332
H       -1.4747  0.7331  1.8605
H       -1.2502  -0.9053  1.9828
H       1.4400  -0.7204  -1.8598
H       1.2315  0.9229  -1.9528
H       3.6258  0.1273  -1.2464
H       2.8584  1.4520  -0.3991
H       2.8981  -1.4632  0.4339
H       3.6625  -0.1073  1.2364
H       1.2501  -0.9045  1.9832
H       1.4722  0.7338  1.8602
H       -1.4400  -0.7191  -1.8602
