27

Co      0.0000  0.0000  0.0000
Cl      0.0002  -2.2717  -0.2170
Cl      -0.0001  2.2718  0.2171
N       -1.5222  0.1366  -1.3603
N       -1.4830  -0.1367  1.3233
N       1.4830  0.1384  -1.3234
N       1.5222  -0.1381  1.3602
C       -2.7946  0.4244  -0.6402
C       -2.7703  -0.4163  0.6303
C       2.7701  0.4170  -0.6305
C       2.7948  -0.4233  0.6404
H       -1.2734  0.8514  -2.0230
H       -2.8100  1.4796  -0.4170
H       -3.6973  0.1714  -1.1848
H       -3.6531  -0.1752  1.2046
H       -2.7861  -1.4716  0.3998
H       -1.5038  0.7429  1.8030
H       -1.2247  -0.8618  1.9710
H       1.5022  -0.7435  -1.8041
H       1.2245  0.8628  -1.9698
H       3.6531  0.1741  -1.2046
H       2.7874  1.4704  -0.4023
H       2.8128  -1.4767  0.4195
H       3.6972  -0.1676  1.1851
H       1.2738  -0.8531  2.0211
H       1.5508  0.7509  1.8266
H       -1.5532  -0.7506  -1.8247
