27

Co      -0.0245  0.0000  0.0000
Cl      0.0035  -2.3152  -0.2168
Cl      0.0031  2.3153  0.2169
N       -1.5033  0.1533  -1.3898
N       -1.5033  -0.1534  1.3897
N       1.5164  0.1516  -1.3620
N       1.5164  -0.1513  1.3620
C       -2.7649  0.4062  -0.6404
C       -2.7651  -0.4055  0.6404
C       2.7928  0.4094  -0.6356
C       2.7929  -0.4083  0.6357
H       -1.2147  0.9187  -1.9755
H       -2.8400  1.4565  -0.4190
H       -3.6200  0.1187  -1.2337
H       -3.6222  -0.1176  1.2316
H       -2.8407  -1.4558  0.4190
H       -1.4359  0.7237  1.8836
H       -1.2151  -0.9192  1.9750
H       1.4485  -0.7341  -1.8404
H       1.2345  0.9037  -1.9659
H       3.6363  0.1232  -1.2453
H       2.8728  1.4598  -0.4115
H       2.8737  -1.4587  0.4115
H       3.6363  -0.1216  1.2454
H       1.2347  -0.9037  1.9656
H       1.4480  0.7342  1.8407
H       -1.4339  -0.7241  -1.8833
