27

Co      -0.0245  -0.0244  -0.0017
Cl      0.0035  -2.2788  -0.2124
Cl      0.0031  2.3125  0.2159
N       -1.4903  0.1532  -1.3869
N       -1.4903  -0.1482  1.3851
N       1.5034  0.1515  -1.3591
N       1.5033  -0.1461  1.3574
C       -2.7964  0.4015  -0.6209
C       -2.7966  -0.4008  0.6226
C       2.8243  0.4047  -0.6161
C       2.8244  -0.4036  0.6179
H       -1.3199  0.9311  -1.9962
H       -2.8714  1.4533  -0.4142
H       -3.6442  0.1020  -1.2205
H       -3.6442  -0.0976  1.2224
H       -2.8720  -1.4526  0.4192
H       -1.5550  0.7097  1.9016
H       -1.3389  -0.8980  2.0311
H       1.5834  -0.6881  -1.9022
H       1.3397  0.9161  -1.9866
H       3.6605  0.1066  -1.2307
H       2.9056  1.4566  -0.4066
H       2.9064  -1.4555  0.4117
H       3.6604  -0.1016  1.2325
H       1.3584  -0.8825  2.0217
H       1.5695  0.7202  1.8588
H       -1.5687  -0.6780  -1.9451
