27

Co      -0.0370  0.0000  0.0000
Cl      0.0035  -2.2975  -0.2178
Cl      0.0031  2.2976  0.2179
N       -1.5317  0.1381  -1.3518
N       -1.5317  -0.1382  1.3517
N       1.5653  0.1451  -1.3740
N       1.5652  -0.1448  1.3740
C       -2.7625  0.4078  -0.6161
C       -2.7628  -0.4070  0.6161
C       2.7904  0.4087  -0.6159
C       2.7905  -0.4076  0.6160
H       -1.2459  0.8834  -1.9653
H       -2.8339  1.4576  -0.3804
H       -3.6270  0.1306  -1.1995
H       -3.6292  -0.1295  1.1973
H       -2.8346  -1.4555  0.3804
H       -1.4728  0.7506  1.8206
H       -1.2463  -0.8840  1.9648
H       1.5132  -0.7496  -1.8396
H       1.3067  0.8862  -1.9971
H       3.6661  0.1310  -1.1883
H       2.8618  1.4554  -0.3816
H       2.8626  -1.4543  0.3816
H       3.6660  -0.1294  1.1884
H       1.3068  -0.8863  1.9967
H       1.5127  0.7497  1.8400
H       -1.4708  -0.7510  -1.8203
