27

Co      -0.0370  0.0031  -0.0194
Cl      0.0035  -2.2727  -0.2160
Cl      0.0031  2.2708  0.2181
N       -1.4981  0.1328  -1.3467
N       -1.4916  -0.1308  1.3282
N       1.4925  0.1398  -1.3321
N       1.5644  -0.1374  1.3873
C       -2.7662  0.4210  -0.6221
C       -2.7664  -0.4232  0.6307
C       2.7695  0.4146  -0.6120
C       2.8187  -0.4311  0.6403
H       -1.2068  0.8691  -1.9706
H       -2.8093  1.4685  -0.3709
H       -3.6141  0.1770  -1.2408
H       -3.6090  -0.1624  1.2481
H       -2.8242  -1.4727  0.3885
H       -1.4279  0.7689  1.7822
H       -1.1765  -0.8610  1.9493
H       1.4356  -0.7546  -1.8012
H       1.2185  0.8817  -1.9509
H       3.6090  0.1823  -1.2493
H       2.8126  1.4603  -0.3549
H       2.8768  -1.4788  0.4068
H       3.6900  -0.1574  1.2195
H       1.2861  -0.8535  2.0328
H       1.5169  0.7754  1.8236
H       -1.4423  -0.7623  -1.8040
