27

Co      0.0000  0.0000  0.0000
Cl      0.0002  -2.2699  -0.2132
Cl      -0.0001  2.2699  0.2133
N       -1.4741  0.1449  -1.3494
N       -1.4741  -0.1450  1.3493
N       1.4741  0.1448  -1.3494
N       1.4741  -0.1445  1.3494
C       -2.7956  0.4052  -0.6169
C       -2.7959  -0.4045  0.6169
C       2.7957  0.4051  -0.6170
C       2.7958  -0.4040  0.6171
H       -1.3127  0.8939  -1.9955
H       -2.8730  1.4570  -0.4077
H       -3.6288  0.1072  -1.2351
H       -3.6288  -0.1061  1.2353
H       -2.8737  -1.4563  0.4077
H       -1.5466  0.7092  1.8706
H       -1.3131  -0.8945  1.9950
H       1.5468  -0.7098  -1.8699
H       1.3129  0.8936  -1.9957
H       3.6288  0.1069  -1.2339
H       2.8746  1.4570  -0.4083
H       2.8754  -1.4559  0.4083
H       3.6287  -0.1053  1.2340
H       1.3130  -0.8937  1.9954
H       1.5463  0.7099  1.8703
H       -1.5468  -0.7095  -1.8703
