27

Co      -0.0370  0.0031  -0.0194
Cl      0.0035  -2.3127  -0.2157
Cl      0.0031  2.3107  0.2179
N       -1.4778  0.1266  -1.3466
N       -1.4713  -0.1247  1.3280
N       1.4721  0.1317  -1.3320
N       1.5441  -0.1294  1.3872
C       -2.7745  0.4199  -0.6085
C       -2.7747  -0.4221  0.6171
C       2.7778  0.4135  -0.5985
C       2.8270  -0.4300  0.6268
H       -1.1240  0.9249  -1.8819
H       -2.9066  1.4664  -0.3943
H       -3.5937  0.0773  -1.2256
H       -3.5886  -0.0627  1.2329
H       -2.9215  -1.4706  0.4119
H       -1.4777  0.7099  1.8873
H       -1.0938  -0.9169  1.8605
H       1.4873  -0.6956  -1.9044
H       1.1357  0.9357  -1.8662
H       3.5886  0.0823  -1.2326
H       2.9094  1.4600  -0.3764
H       2.9737  -1.4786  0.4284
H       3.6696  -0.0574  1.2029
H       1.2056  -0.9075  1.9481
H       1.5686  0.7164  1.9269
H       -1.4921  -0.7033  -1.9091
