27

Co      0.0370  0.0213  0.0211
Cl      -0.0030  -2.3017  -0.2186
Cl      -0.0034  2.2701  0.2133
N       -1.4578  0.1460  -1.3120
N       -1.4643  -0.1533  1.3320
N       1.4635  0.1408  -1.3265
N       1.3915  -0.1476  1.2729
C       -2.7914  0.3863  -0.6444
C       -2.7916  -0.3828  0.6341
C       2.7882  0.3927  -0.6547
C       2.7393  -0.3740  0.6248
H       -1.4510  0.8707  -2.0300
H       -2.7717  1.4464  -0.4382
H       -3.6312  0.1815  -1.2923
H       -3.6363  -0.1973  1.2837
H       -2.7581  -1.4408  0.4155
H       -1.5948  0.6722  1.8948
H       -1.4636  -0.9134  2.0150
H       1.5723  -0.7196  -1.8325
H       1.4397  0.8593  -2.0483
H       3.6363  0.1736  -1.2842
H       2.7705  1.4528  -0.4573
H       2.7080  -1.4321  0.4004
H       3.5552  -0.1987  1.3125
H       1.3539  -0.9213  1.9304
H       1.5034  0.6671  1.8546
H       -1.5675  -0.7115  -1.8287
