27

Co      0.0000  0.0244  0.0017
Cl      0.0002  -2.2841  -0.2167
Cl      -0.0001  2.2505  0.2135
N       -1.4368  0.1399  -1.3331
N       -1.4761  -0.1450  1.3715
N       1.4761  0.1398  -1.3699
N       1.4368  -0.1446  1.3348
C       -2.7370  0.3999  -0.6308
C       -2.7618  -0.4066  0.6390
C       2.7616  0.4072  -0.6408
C       2.7372  -0.3988  0.6294
H       -1.3436  0.8836  -2.0004
H       -2.7893  1.4522  -0.4113
H       -3.5179  0.1597  -1.3387
H       -3.5621  -0.1570  1.3175
H       -2.8145  -1.4588  0.4235
H       -1.5854  0.6880  1.9229
H       -1.3746  -0.9080  2.0162
H       1.5722  -0.7206  -1.8784
H       1.3929  0.8735  -2.0522
H       3.5621  0.1544  -1.3192
H       2.8139  1.4596  -0.4291
H       2.7902  -1.4511  0.4070
H       3.5178  -0.1611  1.3373
H       1.3254  -0.9171  1.9650
H       1.5360  0.6813  1.9004
H       -1.5231  -0.7129  -1.8567
