27

Co      0.0000  0.0244  0.0017
Cl      0.0002  -2.3027  -0.2176
Cl      -0.0001  2.2691  0.2143
N       -1.4338  0.1447  -1.2917
N       -1.4731  -0.1499  1.3301
N       1.4731  0.1447  -1.3284
N       1.4338  -0.1494  1.2933
C       -2.7587  0.4004  -0.6424
C       -2.7835  -0.4071  0.6505
C       2.7834  0.4078  -0.6523
C       2.7590  -0.3993  0.6409
H       -1.2956  0.8636  -1.9815
H       -2.7818  1.4619  -0.4506
H       -3.6137  0.1406  -1.2463
H       -3.6556  -0.1379  1.2274
H       -2.8070  -1.4685  0.4627
H       -1.6153  0.6858  1.8722
H       -1.3266  -0.8880  1.9972
H       1.6044  -0.7184  -1.8277
H       1.3449  0.8535  -2.0333
H       3.6578  0.1353  -1.2268
H       2.8064  1.4693  -0.4684
H       2.7827  -1.4608  0.4462
H       3.6136  -0.1420  1.2449
H       1.2774  -0.8970  1.9460
H       1.5682  0.6791  1.8498
H       -1.5553  -0.7107  -1.8060
