27

Co      0.0370  0.0244  0.0017
Cl      -0.0030  -2.2786  -0.2130
Cl      -0.0034  2.2450  0.2097
N       -1.4244  0.1573  -1.3106
N       -1.4637  -0.1625  1.3490
N       1.4302  0.1502  -1.3251
N       1.3908  -0.1549  1.2900
C       -2.7574  0.3862  -0.6467
C       -2.7822  -0.3929  0.6548
C       2.7543  0.3926  -0.6570
C       2.7299  -0.3841  0.6456
H       -1.3792  0.9012  -1.9947
H       -2.8127  1.4472  -0.4695
H       -3.5626  0.1121  -1.3103
H       -3.6045  -0.1095  1.2914
H       -2.8379  -1.4538  0.4817
H       -1.6420  0.6482  1.9340
H       -1.4102  -0.9256  2.0104
H       1.5886  -0.6823  -1.8698
H       1.3679  0.8880  -2.0149
H       3.5676  0.1061  -1.3022
H       2.8096  1.4554  -0.4868
H       2.7859  -1.4470  0.4646
H       3.5234  -0.1128  1.3203
H       1.3004  -0.9316  1.9277
H       1.5524  0.6431  1.8919
H       -1.5819  -0.6731  -1.8678
