27

Co      0.0000  0.0000  0.0000
Cl      0.0002  -2.2814  -0.2140
Cl      -0.0001  2.2814  0.2141
N       -1.4056  0.1731  -1.3259
N       -1.4056  -0.1732  1.3258
N       1.4056  0.1712  -1.3258
N       1.4056  -0.1709  1.3258
C       -2.7423  0.3766  -0.6510
C       -2.7425  -0.3759  0.6510
C       2.7423  0.3765  -0.6511
C       2.7425  -0.3754  0.6512
H       -1.4179  0.8875  -2.0594
H       -2.7631  1.4375  -0.4626
H       -3.5683  0.1295  -1.2971
H       -3.5660  -0.1284  1.2995
H       -2.7637  -1.4368  0.4626
H       -1.4997  0.6970  1.8205
H       -1.4183  -0.8880  2.0590
H       1.5041  -0.6976  -1.8180
H       1.4181  0.8853  -2.0593
H       3.5683  0.1332  -1.2973
H       2.7613  1.4394  -0.4613
H       2.7621  -1.4383  0.4613
H       3.5682  -0.1317  1.2974
H       1.4160  -0.8854  2.0590
H       1.5036  0.6977  1.8183
H       -1.5022  -0.6973  -1.8202
