27

Co      -0.0370  0.0000  0.0000
Cl      0.0035  -2.3171  -0.2205
Cl      0.0031  2.3172  0.2206
N       -1.5313  0.1339  -1.3729
N       -1.4920  -0.1340  1.3359
N       1.5256  0.1409  -1.3583
N       1.5648  -0.1406  1.3951
C       -2.7570  0.4090  -0.6162
C       -2.7327  -0.4009  0.6063
C       2.7603  0.4026  -0.6061
C       2.7850  -0.4089  0.6160
H       -1.3272  0.8807  -2.0058
H       -2.8321  1.4565  -0.3784
H       -3.5845  0.1430  -1.2533
H       -3.5426  -0.1468  1.2708
H       -2.8082  -1.4470  0.3612
H       -1.4694  0.7375  1.8332
H       -1.2785  -0.8910  1.9538
H       1.5099  -0.7365  -1.8522
H       1.3389  0.8933  -1.9861
H       3.5794  0.1483  -1.2618
H       2.8354  1.4468  -0.3624
H       2.8608  -1.4531  0.3796
H       3.6236  -0.1418  1.2423
H       1.3881  -0.8835  2.0373
H       1.5584  0.7440  1.8746
H       -1.5165  -0.7452  -1.8549
