27

Co      -0.0370  0.0000  0.0000
Cl      0.0035  -2.2920  -0.2141
Cl      0.0031  2.2921  0.2142
N       -1.4889  0.1448  -1.3507
N       -1.4496  -0.1450  1.3138
N       1.4832  0.1500  -1.3361
N       1.5224  -0.1497  1.3730
C       -2.8111  0.4075  -0.6220
C       -2.7868  -0.3994  0.6121
C       2.8144  0.4011  -0.6119
C       2.8391  -0.4074  0.6218
H       -1.3189  0.8918  -1.9977
H       -2.8954  1.4593  -0.4195
H       -3.6441  0.0966  -1.2361
H       -3.5999  -0.1005  1.2559
H       -2.8715  -1.4513  0.4023
H       -1.5092  0.7029  1.8458
H       -1.2702  -0.9022  1.9457
H       1.5538  -0.7019  -1.8629
H       1.3306  0.9026  -1.9798
H       3.6390  0.1038  -1.2431
H       2.8983  1.4530  -0.4016
H       2.9237  -1.4593  0.4188
H       3.6832  -0.0973  1.2236
H       1.3798  -0.8928  2.0310
H       1.6024  0.7094  1.8854
H       -1.5586  -0.7106  -1.8676
