27

Co      0.0125  0.0213  0.0211
Cl      0.0002  -2.3249  -0.2213
Cl      -0.0001  2.2933  0.2160
N       -1.4512  0.1453  -1.3573
N       -1.4577  -0.1525  1.3773
N       1.4700  0.1384  -1.3440
N       1.3979  -0.1452  1.2904
C       -2.7508  0.4008  -0.6514
C       -2.7511  -0.3972  0.6411
C       2.7754  0.4104  -0.6568
C       2.7265  -0.3917  0.6269
H       -1.3963  0.8741  -2.0536
H       -2.7753  1.4609  -0.4632
H       -3.5897  0.1474  -1.2803
H       -3.5948  -0.1632  1.2716
H       -2.7617  -1.4552  0.4406
H       -1.6482  0.6563  1.9624
H       -1.4089  -0.9169  2.0386
H       1.6403  -0.7136  -1.8576
H       1.4046  0.8481  -2.0621
H       3.6111  0.1444  -1.2836
H       2.8068  1.4705  -0.4742
H       2.7442  -1.4498  0.4172
H       3.5300  -0.1695  1.3119
H       1.3188  -0.9100  1.9442
H       1.5715  0.6610  1.8797
H       -1.6208  -0.6956  -1.8962
