27

Co      -0.0125  0.0000  0.0000
Cl      0.0002  -2.2930  -0.2159
Cl      -0.0001  2.2931  0.2160
N       -1.4877  0.1465  -1.3569
N       -1.4877  -0.1466  1.3567
N       1.5082  0.1533  -1.4069
N       1.5081  -0.1530  1.4069
C       -2.7617  0.4098  -0.6357
C       -2.7619  -0.4091  0.6357
C       2.7618  0.4075  -0.6404
C       2.7619  -0.4064  0.6404
H       -1.1921  0.8999  -1.9558
H       -2.8368  1.4601  -0.4089
H       -3.6040  0.1291  -1.2457
H       -3.6062  -0.1280  1.2435
H       -2.8374  -1.4594  0.4090
H       -1.4190  0.7377  1.8359
H       -1.1925  -0.9005  1.9553
H       1.4466  -0.7269  -1.8955
H       1.2332  0.9156  -1.9993
H       3.6267  0.1264  -1.2230
H       2.8300  1.4579  -0.4164
H       2.8309  -1.4568  0.4164
H       3.6267  -0.1249  1.2232
H       1.2334  -0.9156  1.9990
H       1.4461  0.7270  1.8959
H       -1.4170  -0.7381  -1.8355
