27

Co      -0.0245  -0.0244  -0.0017
Cl      0.0035  -2.2585  -0.2153
Cl      0.0031  2.2922  0.2188
N       -1.5294  0.1369  -1.3836
N       -1.5294  -0.1320  1.3818
N       1.5425  0.1371  -1.3558
N       1.5425  -0.1317  1.3541
C       -2.7390  0.4223  -0.6148
C       -2.7392  -0.4216  0.6165
C       2.7668  0.4256  -0.6101
C       2.7670  -0.4245  0.6118
H       -1.2747  0.8988  -1.9838
H       -2.8644  1.4698  -0.3885
H       -3.5490  0.1134  -1.2562
H       -3.5512  -0.1090  1.2558
H       -2.8651  -1.4676  0.3936
H       -1.5705  0.7457  1.8642
H       -1.2937  -0.8657  2.0187
H       1.5947  -0.7242  -1.8666
H       1.2945  0.8857  -1.9724
H       3.5653  0.1161  -1.2678
H       2.8991  1.4698  -0.3828
H       2.8999  -1.4687  0.3879
H       3.5652  -0.1111  1.2696
H       1.3132  -0.8521  2.0074
H       1.5808  0.7562  1.8232
H       -1.5819  -0.7141  -1.9076
