27

Co      0.0000  0.0000  0.0000
Cl      0.0002  -2.3055  -0.2186
Cl      -0.0001  2.3055  0.2187
N       -1.4430  0.1454  -1.3204
N       -1.4430  -0.1455  1.3203
N       1.4430  0.1453  -1.3203
N       1.4430  -0.1450  1.3203
C       -2.7574  0.3891  -0.6352
C       -2.7577  -0.3884  0.6352
C       2.7575  0.3890  -0.6353
C       2.7577  -0.3879  0.6354
H       -1.3109  0.8927  -1.9762
H       -2.7546  1.4438  -0.4069
H       -3.6026  0.1770  -1.2704
H       -3.6026  -0.1759  1.2706
H       -2.7553  -1.4431  0.4069
H       -1.4362  0.7253  1.8211
H       -1.3113  -0.8932  1.9758
H       1.4364  -0.7259  -1.8204
H       1.3111  0.8924  -1.9765
H       3.6026  0.1766  -1.2706
H       2.7548  1.4438  -0.4076
H       2.7556  -1.4427  0.4076
H       3.6025  -0.1750  1.2707
H       1.3112  -0.8925  1.9761
H       1.4359  0.7260  1.8208
H       -1.4364  -0.7257  -1.8208
