27

Co      -0.0370  0.0000  0.0000
Cl      0.0035  -2.2753  -0.2170
Cl      0.0031  2.2754  0.2171
N       -1.5149  0.1331  -1.3578
N       -1.5149  -0.1332  1.3577
N       1.5485  0.1401  -1.3800
N       1.5484  -0.1398  1.3800
C       -2.7455  0.4062  -0.6113
C       -2.7457  -0.4055  0.6112
C       2.7733  0.4071  -0.6110
C       2.7735  -0.4060  0.6111
H       -1.3067  0.8848  -1.9842
H       -2.8182  1.4536  -0.3682
H       -3.5657  0.1496  -1.2598
H       -3.5679  -0.1485  1.2577
H       -2.8188  -1.4515  0.3682
H       -1.4997  0.7419  1.8467
H       -1.3071  -0.8854  1.9837
H       1.5402  -0.7409  -1.8657
H       1.3675  0.8876  -2.0160
H       3.6048  0.1500  -1.2486
H       2.8460  1.4514  -0.3693
H       2.8468  -1.4503  0.3693
H       3.6047  -0.1484  1.2488
H       1.3676  -0.8877  2.0157
H       1.5396  0.7410  1.8661
H       -1.4977  -0.7422  -1.8464
