27

Co      0.0370  0.0213  0.0211
Cl      -0.0030  -2.3249  -0.2213
Cl      -0.0034  2.2933  0.2160
N       -1.4859  0.1489  -1.3444
N       -1.4925  -0.1562  1.3644
N       1.4916  0.1437  -1.3589
N       1.4196  -0.1505  1.3054
C       -2.7510  0.4071  -0.6676
C       -2.7512  -0.4035  0.6573
C       2.7478  0.4134  -0.6779
C       2.6989  -0.3947  0.6481
H       -1.3077  0.8738  -2.0076
H       -2.7817  1.4657  -0.4623
H       -3.5897  0.1655  -1.3001
H       -3.5971  -0.1813  1.2892
H       -2.7681  -1.4601  0.4397
H       -1.5448  0.6885  1.8994
H       -1.3203  -0.9166  1.9927
H       1.5199  -0.7360  -1.8371
H       1.2964  0.8625  -2.0260
H       3.5948  0.1576  -1.2934
H       2.7791  1.4721  -0.4815
H       2.7165  -1.4513  0.4245
H       3.5137  -0.1827  1.3217
H       1.2105  -0.9244  1.9081
H       1.4511  0.6835  1.8592
H       -1.5152  -0.7278  -1.8333
