27

Co      0.0245  0.0244  0.0017
Cl      -0.0030  -2.2786  -0.2130
Cl      -0.0034  2.2450  0.2097
N       -1.4338  0.1539  -1.3040
N       -1.4338  -0.1591  1.3056
N       1.4208  0.1536  -1.3317
N       1.4207  -0.1584  1.3334
C       -2.7697  0.3911  -0.6493
C       -2.7699  -0.3903  0.6476
C       2.7420  0.3877  -0.6544
C       2.7422  -0.3866  0.6527
H       -1.3832  0.8884  -1.9988
H       -2.8284  1.4520  -0.4747
H       -3.5733  0.1108  -1.3119
H       -3.5710  -0.1131  1.3126
H       -2.8290  -1.4513  0.4697
H       -1.6026  0.6502  1.8922
H       -1.3651  -0.9226  1.9630
H       1.5788  -0.6730  -1.8884
H       1.3638  0.9009  -2.0107
H       3.5569  0.1074  -1.3006
H       2.7939  1.4506  -0.4816
H       2.7947  -1.4495  0.4766
H       3.5568  -0.1092  1.2991
H       1.3454  -0.9346  1.9751
H       1.5918  0.6411  1.9325
H       -1.5917  -0.6825  -1.8481
