27

Co      0.0000  0.0000  0.0000
Cl      0.0002  -2.3135  -0.2205
Cl      -0.0001  2.3136  0.2206
N       -1.5283  0.1364  -1.3485
N       -1.4890  -0.1365  1.3116
N       1.4890  0.1382  -1.3116
N       1.5283  -0.1379  1.3485
C       -2.7755  0.4084  -0.6226
C       -2.7512  -0.4004  0.6128
C       2.7511  0.4010  -0.6129
C       2.7758  -0.4073  0.6228
H       -1.3702  0.8627  -2.0226
H       -2.8218  1.4627  -0.4047
H       -3.6385  0.1442  -1.2156
H       -3.5943  -0.1480  1.2354
H       -2.7979  -1.4532  0.3876
H       -1.5485  0.7258  1.8181
H       -1.3216  -0.8730  1.9705
H       1.5469  -0.7264  -1.8192
H       1.3213  0.8741  -1.9694
H       3.5943  0.1468  -1.2354
H       2.7992  1.4520  -0.3901
H       2.8246  -1.4583  0.4073
H       3.6385  -0.1403  1.2159
H       1.3706  -0.8643  2.0206
H       1.5955  0.7338  1.8417
H       -1.5979  -0.7335  -1.8398
