27

Co      -0.0260  -0.0279  -0.0170
Cl      -1.0964  1.6233  -1.2169
Cl      1.1958  1.4910  1.4045
C       2.6951  -0.7241  -0.8024
C       2.1481  -1.9430  -0.1249
C       -2.5480  -1.3096  -0.4327
C       -2.4336  -1.1656  1.0618
N       1.5295  0.0447  -1.3245
N       1.1120  -1.4783  0.8497
N       -1.1700  -1.3177  -1.0317
N       -1.5044  -0.0464  1.3328
H       2.8759  -2.4954  0.4583
H       1.7217  -2.6201  -0.8517
H       -3.1124  -0.4746  -0.8146
H       -3.0230  -2.2227  -0.7645
H       1.7102  1.0358  -1.3339
H       1.1860  -0.2086  -2.2302
H       -1.9167  0.8607  1.1968
H       -1.1088  -0.0510  2.2554
H       -2.0517  -2.0781  1.4938
H       -3.3838  -0.9563  1.5228
H       0.5893  -2.2479  1.2147
H       1.4867  -0.9378  1.6191
H       3.3220  -0.9299  -1.6583
H       3.2617  -0.1347  -0.1004
H       -0.7488  -2.2310  -1.0496
H       -1.2008  -0.9537  -1.9647
