27

Co      0.0278  0.0308  0.0186
Cl      -1.0958  1.6159  -1.2259
Cl      1.1301  1.3931  1.3267
C       2.6645  -0.7064  -0.8127
C       2.1282  -1.9356  -0.1026
C       -2.5420  -1.3239  -0.4454
C       -2.4362  -1.1557  1.0571
N       1.5001  0.0664  -1.3159
N       1.0926  -1.4837  0.8729
N       -1.1512  -1.3083  -1.0170
N       -1.4729  -0.0597  1.3416
H       2.9152  -2.4812  0.3899
H       1.6559  -2.6067  -0.8078
H       -3.0793  -0.5006  -0.8831
H       -3.0475  -2.2400  -0.7025
H       1.7343  1.0345  -1.4472
H       1.1963  -0.2718  -2.2102
H       -1.9192  0.8378  1.2597
H       -1.1280  -0.1097  2.2799
H       -2.0652  -2.0617  1.5183
H       -3.4027  -0.9460  1.4906
H       0.5496  -2.2656  1.1857
H       1.5349  -1.0857  1.6798
H       3.3299  -0.9828  -1.6174
H       3.2081  -0.0801  -0.1273
H       -0.7882  -2.2388  -1.0399
H       -1.2038  -0.9778  -1.9608
