27

Co      -0.0290  -0.0323  -0.0144
Cl      -1.0884  1.6136  -1.2122
Cl      1.1930  1.4969  1.3987
C       2.7281  -0.7203  -0.8429
C       2.1851  -1.9923  -0.0847
C       -2.5595  -1.3256  -0.4553
C       -2.4361  -1.1736  1.0742
N       1.4837  0.0841  -1.2948
N       1.0447  -1.4705  0.8142
N       -1.1534  -1.2921  -1.0061
N       -1.4641  -0.0374  1.3100
H       2.9128  -2.5348  0.5114
H       1.7495  -2.6813  -0.7961
H       -3.0689  -0.4661  -0.8589
H       -3.0765  -2.2186  -0.7789
H       1.6842  1.0732  -1.3029
H       1.2270  -0.1525  -2.2344
H       -1.9160  0.8532  1.1986
H       -1.0951  -0.0370  2.2442
H       -2.0440  -2.0610  1.5484
H       -3.3871  -0.9511  1.5296
H       0.5031  -2.2299  1.1810
H       1.4614  -1.0022  1.6024
H       3.3266  -0.9686  -1.7075
H       3.3078  -0.0797  -0.1944
H       -0.7631  -2.2175  -1.0129
H       -1.1878  -0.9727  -1.9561
