27

Co      -0.0096  -0.0102  -0.0038
Cl      -1.1002  1.6267  -1.2169
Cl      1.1923  1.4945  1.3999
C       2.6863  -0.7266  -0.8204
C       2.1528  -1.9377  -0.1104
C       -2.5819  -1.3129  -0.4406
C       -2.4240  -1.1770  1.0461
N       1.5356  0.0643  -1.3422
N       1.0920  -1.5239  0.8640
N       -1.1935  -1.3480  -1.0070
N       -1.4860  -0.0558  1.2933
H       2.9003  -2.4594  0.4732
H       1.7514  -2.6406  -0.8300
H       -3.1309  -0.4703  -0.8250
H       -3.0692  -2.2202  -0.7713
H       1.7306  1.0524  -1.3483
H       1.1773  -0.1802  -2.2448
H       -1.9071  0.8457  1.1544
H       -1.0956  -0.0521  2.2166
H       -2.0198  -2.0933  1.4523
H       -3.3535  -0.9722  1.5555
H       0.5453  -2.3128  1.1469
H       1.4389  -1.0497  1.6830
H       3.2939  -0.9672  -1.6810
H       3.2812  -0.1337  -0.1430
H       -0.7768  -2.2623  -0.9687
H       -1.1933  -1.0332  -1.9583
