27

Co      0.0253  0.0190  0.0239
Cl      -1.0978  1.6374  -1.2342
Cl      1.1370  1.4133  1.3370
C       2.6521  -0.7054  -0.8109
C       2.1311  -1.9396  -0.1059
C       -2.5150  -1.3160  -0.4538
C       -2.4078  -1.1428  1.0518
N       1.4660  0.0505  -1.2839
N       1.0558  -1.4796  0.8270
N       -1.1337  -1.3765  -1.0427
N       -1.4509  -0.0490  1.3618
H       2.9078  -2.4557  0.4318
H       1.6966  -2.6341  -0.8110
H       -3.0081  -0.4693  -0.8941
H       -3.0796  -2.2037  -0.6953
H       1.6891  1.0187  -1.4392
H       1.1395  -0.3027  -2.1678
H       -1.8908  0.8512  1.2890
H       -1.1079  -0.1119  2.3010
H       -2.0404  -2.0482  1.5134
H       -3.3785  -0.9406  1.4737
H       0.4871  -2.2570  1.1066
H       1.4775  -1.1097  1.6599
H       3.3043  -0.9590  -1.6302
H       3.1962  -0.0761  -0.1277
H       -0.7980  -2.3169  -1.0442
H       -1.1824  -1.0692  -1.9943
