27

Co      -0.0273  -0.0308  -0.0144
Cl      -1.0839  1.6148  -1.2154
Cl      1.1865  1.4864  1.3967
C       2.6738  -0.7143  -0.8133
C       2.1396  -1.9417  -0.1090
C       -2.5273  -1.3227  -0.4420
C       -2.4306  -1.1471  1.0617
N       1.4895  0.0488  -1.2986
N       1.0606  -1.4648  0.8158
N       -1.1371  -1.2855  -1.0094
N       -1.4502  -0.0638  1.3174
H       2.9094  -2.4587  0.4466
H       1.7085  -2.6410  -0.8096
H       -3.0773  -0.5096  -0.8844
H       -3.0137  -2.2507  -0.7061
H       1.7004  1.0305  -1.3500
H       1.2327  -0.2281  -2.2254
H       -1.8791  0.8415  1.2322
H       -1.0828  -0.0997  2.2492
H       -2.0765  -2.0496  1.5389
H       -3.3921  -0.9106  1.4865
H       0.5576  -2.2458  1.1877
H       1.4909  -0.9969  1.5955
H       3.3318  -0.9718  -1.6260
H       3.2125  -0.0847  -0.1267
H       -0.7573  -2.2129  -1.0346
H       -1.1940  -0.9577  -1.9544
