27

Co      0.0012  0.0025  -0.0025
Cl      -1.0896  1.6132  -1.2168
Cl      1.1584  1.4405  1.3630
C       2.6659  -0.7094  -0.8247
C       2.1323  -1.9325  -0.0980
C       -2.5201  -1.3076  -0.4432
C       -2.4227  -1.1539  1.0654
N       1.5094  0.0780  -1.3334
N       1.0745  -1.5078  0.8718
N       -1.1433  -1.3360  -1.0452
N       -1.4915  -0.0355  1.3668
H       2.9269  -2.4584  0.4058
H       1.6783  -2.6177  -0.7983
H       -3.0289  -0.4606  -0.8692
H       -3.0672  -2.1987  -0.7058
H       1.7396  1.0518  -1.4074
H       1.2336  -0.2156  -2.2498
H       -1.9434  0.8564  1.2802
H       -1.1357  -0.0794  2.3022
H       -2.0303  -2.0497  1.5236
H       -3.4009  -0.9784  1.4844
H       0.5481  -2.3038  1.1750
H       1.4960  -1.1000  1.6856
H       3.3230  -1.0032  -1.6273
H       3.2189  -0.0785  -0.1509
H       -0.7921  -2.2735  -1.0700
H       -1.2043  -1.0088  -1.9905
