27

Co      0.0273  0.0316  0.0161
Cl      -1.0902  1.6086  -1.2237
Cl      1.1297  1.4014  1.3258
C       2.6577  -0.7156  -0.8424
C       2.1414  -1.9298  -0.0795
C       -2.5261  -1.3220  -0.4424
C       -2.4351  -1.1495  1.0637
N       1.5095  0.0974  -1.3235
N       1.0629  -1.5230  0.8746
N       -1.1467  -1.3305  -1.0413
N       -1.4833  -0.0464  1.3749
H       2.9491  -2.4175  0.4385
H       1.7114  -2.6478  -0.7634
H       -3.0525  -0.4944  -0.8827
H       -3.0534  -2.2296  -0.6903
H       1.7595  1.0643  -1.4057
H       1.2024  -0.1908  -2.2328
H       -1.9288  0.8497  1.3077
H       -1.1331  -0.1148  2.3103
H       -2.0681  -2.0501  1.5352
H       -3.4144  -0.9481  1.4734
H       0.5008  -2.3244  1.1112
H       1.4634  -1.1708  1.7287
H       3.2796  -1.0366  -1.6660
H       3.2531  -0.0903  -0.1974
H       -0.7907  -2.2631  -1.0806
H       -1.2118  -0.9889  -1.9821
