27

Co      0.0117  0.0180  -0.0050
Cl      -1.0863  1.6077  -1.2134
Cl      1.1551  1.4328  1.3563
C       2.6504  -0.7141  -0.8107
C       2.1460  -1.9530  -0.1007
C       -2.5317  -1.3136  -0.4461
C       -2.4187  -1.1520  1.0593
N       1.4687  0.0642  -1.2721
N       1.0847  -1.4860  0.8410
N       -1.1532  -1.3444  -1.0461
N       -1.4741  -0.0426  1.3485
H       2.9388  -2.4556  0.4301
H       1.7101  -2.6582  -0.7930
H       -3.0436  -0.4708  -0.8748
H       -3.0780  -2.2080  -0.6991
H       1.7060  1.0349  -1.3768
H       1.1644  -0.2429  -2.1761
H       -1.9246  0.8514  1.2666
H       -1.1187  -0.0884  2.2835
H       -2.0336  -2.0511  1.5169
H       -3.3893  -0.9613  1.4888
H       0.5453  -2.2613  1.1728
H       1.5155  -1.0615  1.6412
H       3.2957  -0.9586  -1.6391
H       3.2021  -0.0914  -0.1263
H       -0.8021  -2.2808  -1.0538
H       -1.2179  -1.0356  -1.9980
