27

Co      -0.0278  -0.0284  -0.0193
Cl      -1.0952  1.6327  -1.2278
Cl      1.1776  1.4743  1.3864
C       2.6649  -0.7132  -0.8194
C       2.1432  -1.9453  -0.0974
C       -2.5165  -1.3163  -0.4356
C       -2.4399  -1.1534  1.0699
N       1.5084  0.0758  -1.3350
N       1.0815  -1.5291  0.8747
N       -1.1207  -1.2668  -0.9918
N       -1.4651  -0.0642  1.3317
H       2.9469  -2.4603  0.4076
H       1.6994  -2.6389  -0.7953
H       -3.0647  -0.4996  -0.8762
H       -2.9938  -2.2434  -0.7194
H       1.7307  1.0575  -1.3454
H       1.2742  -0.1694  -2.2782
H       -1.8985  0.8390  1.2562
H       -1.0863  -0.1072  2.2594
H       -2.0849  -2.0554  1.5483
H       -3.4089  -0.9234  1.4846
H       0.5985  -2.3339  1.2242
H       1.5075  -1.0726  1.6636
H       3.3285  -0.9992  -1.6194
H       3.2092  -0.0825  -0.1408
H       -0.7284  -2.1896  -1.0027
H       -1.1731  -0.9499  -1.9405
