27

Co      0.0044  0.0236  -0.0031
Cl      -1.0830  1.6120  -1.2161
Cl      1.1533  1.4353  1.3602
C       2.6028  -0.7131  -0.8031
C       2.1071  -1.8949  -0.1132
C       -2.5006  -1.3026  -0.4352
C       -2.4056  -1.1330  1.0444
N       1.5042  0.0500  -1.3183
N       1.0856  -1.5344  0.8654
N       -1.1382  -1.3628  -1.0448
N       -1.4698  -0.0605  1.3630
H       2.9608  -2.3529  0.3685
H       1.6919  -2.6244  -0.7907
H       -3.0297  -0.4898  -0.8994
H       -3.0412  -2.2162  -0.6354
H       1.7615  1.0133  -1.4328
H       1.2121  -0.2703  -2.2208
H       -1.9086  0.8412  1.3163
H       -1.1086  -0.1475  2.2925
H       -2.0337  -2.0443  1.4892
H       -3.3863  -0.9557  1.4561
H       0.5834  -2.3589  1.1356
H       1.5012  -1.1550  1.6963
H       3.2962  -1.0151  -1.5724
H       3.1368  -0.0953  -0.1048
H       -0.8000  -2.3030  -1.0361
H       -1.2085  -1.0763  -2.0025
