27

Co      0.0041  0.0299  0.0022
Cl      -1.0643  1.5760  -1.1970
Cl      1.1335  1.4061  1.3352
C       2.6353  -0.6996  -0.8227
C       2.1190  -1.9260  -0.0896
C       -2.5052  -1.3028  -0.4520
C       -2.3985  -1.1396  1.0522
N       1.4740  0.0839  -1.3158
N       1.0412  -1.4998  0.8529
N       -1.1205  -1.3242  -1.0245
N       -1.4464  -0.0392  1.3491
H       2.9160  -2.4211  0.4379
H       1.6931  -2.6379  -0.7826
H       -3.0205  -0.4685  -0.8905
H       -3.0372  -2.2044  -0.7051
H       1.7095  1.0528  -1.4166
H       1.1755  -0.2267  -2.2214
H       -1.8954  0.8578  1.2944
H       -1.0788  -0.1049  2.2753
H       -2.0163  -2.0425  1.5070
H       -3.3667  -0.9455  1.4868
H       0.4938  -2.2917  1.1310
H       1.4516  -1.1178  1.6857
H       3.2824  -0.9861  -1.6365
H       3.1932  -0.0687  -0.1536
H       -0.7568  -2.2535  -1.0039
H       -1.1660  -1.0345  -1.9826
