27

Co      0.0129  0.0192  -0.0090
Cl      -1.0788  1.6022  -1.2064
Cl      1.1463  1.4215  1.3519
C       2.6294  -0.6931  -0.8152
C       2.1210  -1.9452  -0.0923
C       -2.4979  -1.2973  -0.4575
C       -2.3953  -1.1447  1.0644
N       1.4486  0.0781  -1.2911
N       1.0589  -1.5003  0.8603
N       -1.1230  -1.3683  -1.0637
N       -1.4694  -0.0208  1.3743
H       2.9677  -2.4595  0.3449
H       1.6337  -2.6257  -0.7744
H       -2.9364  -0.4230  -0.9159
H       -3.1359  -2.1531  -0.6560
H       1.7156  1.0383  -1.4520
H       1.2432  -0.2747  -2.2127
H       -1.9659  0.8538  1.3224
H       -1.1482  -0.0815  2.3223
H       -1.9743  -2.0224  1.5350
H       -3.3930  -1.0136  1.4615
H       0.5516  -2.2966  1.1970
H       1.5575  -1.1530  1.6645
H       3.3401  -0.9986  -1.5693
H       3.1250  -0.0233  -0.1302
H       -0.8469  -2.3337  -1.0635
H       -1.2139  -1.1107  -2.0321
