27

Co      -0.0314  -0.0142  -0.0099
Cl      -1.0902  1.6094  -1.2050
Cl      1.1868  1.4744  1.3919
C       2.6833  -0.7135  -0.8156
C       2.1421  -1.9402  -0.1099
C       -2.5622  -1.3041  -0.4512
C       -2.4010  -1.1624  1.0479
N       1.5192  0.0684  -1.3259
N       1.1095  -1.5012  0.8815
N       -1.1771  -1.3191  -1.0237
N       -1.4697  -0.0339  1.2910
H       2.9331  -2.4959  0.3758
H       1.6648  -2.6056  -0.8168
H       -3.0848  -0.4603  -0.8702
H       -3.0923  -2.2044  -0.7165
H       1.7417  1.0498  -1.3656
H       1.2718  -0.2020  -2.2556
H       -1.9341  0.8523  1.1867
H       -1.1031  -0.0415  2.2234
H       -1.9613  -2.0571  1.4701
H       -3.3483  -1.0014  1.5391
H       0.6352  -2.2977  1.2643
H       1.5595  -1.0280  1.6470
H       3.3510  -0.9914  -1.6161
H       3.2244  -0.0854  -0.1280
H       -0.8130  -2.2546  -1.0037
H       -1.2122  -1.0271  -1.9812
