27

Co      -0.0012  0.0051  0.0007
Cl      -1.0982  1.6307  -1.2258
Cl      1.1680  1.4540  1.3733
C       2.6828  -0.7171  -0.8036
C       2.1452  -1.9526  -0.1180
C       -2.5504  -1.3199  -0.4446
C       -2.4397  -1.1701  1.0566
N       1.4963  0.0340  -1.3024
N       1.0832  -1.4731  0.8220
N       -1.1474  -1.3073  -0.9814
N       -1.4695  -0.0746  1.3118
H       2.9145  -2.4897  0.4177
H       1.7004  -2.6334  -0.8295
H       -3.0735  -0.4852  -0.8774
H       -3.0547  -2.2302  -0.7283
H       1.7168  1.0088  -1.4202
H       1.2152  -0.2957  -2.2050
H       -1.9159  0.8212  1.2152
H       -1.1178  -0.1008  2.2504
H       -2.0630  -2.0774  1.5095
H       -3.3952  -0.9556  1.5063
H       0.5581  -2.2493  1.1753
H       1.5233  -1.0368  1.6113
H       3.3603  -0.9606  -1.6066
H       3.2022  -0.0863  -0.1013
H       -0.7730  -2.2367  -0.9528
H       -1.1810  -1.0268  -1.9426
