27

Co      0.0055  0.0358  0.0075
Cl      -1.0724  1.5896  -1.2021
Cl      1.1399  1.4085  1.3425
C       2.6589  -0.6989  -0.8232
C       2.1219  -1.9351  -0.0993
C       -2.4989  -1.3005  -0.4629
C       -2.3939  -1.1438  1.0589
N       1.4738  0.0622  -1.3040
N       1.0460  -1.4744  0.8337
N       -1.1266  -1.3789  -1.0683
N       -1.4736  -0.0183  1.3884
H       2.9447  -2.4636  0.3595
H       1.6363  -2.6093  -0.7885
H       -2.9364  -0.4284  -0.9257
H       -3.1420  -2.1563  -0.6508
H       1.7381  1.0197  -1.5000
H       1.2573  -0.3218  -2.2129
H       -1.9735  0.8556  1.3526
H       -1.1544  -0.0959  2.3364
H       -1.9678  -2.0224  1.5254
H       -3.3922  -1.0223  1.4576
H       0.5234  -2.2688  1.1510
H       1.5399  -1.1486  1.6506
H       3.3691  -1.0201  -1.5727
H       3.1581  -0.0262  -0.1424
H       -0.8514  -2.3447  -1.0673
H       -1.2106  -1.1192  -2.0354
