27

Co      -0.0154  0.0081  -0.0321
Cl      -1.0879  1.6041  -1.2045
Cl      1.1908  1.4853  1.3985
C       2.7204  -0.7200  -0.8262
C       2.1882  -2.0127  -0.0904
C       -2.5724  -1.3204  -0.4520
C       -2.4540  -1.1985  1.0800
N       1.4879  0.0826  -1.3185
N       1.0832  -1.5096  0.8508
N       -1.1631  -1.3092  -0.9985
N       -1.5073  -0.0396  1.3297
H       2.9385  -2.5724  0.4561
H       1.7307  -2.6778  -0.8103
H       -3.0561  -0.4343  -0.8394
H       -3.1132  -2.1896  -0.8005
H       1.7082  1.0644  -1.3698
H       1.2311  -0.1907  -2.2461
H       -1.9822  0.8402  1.2303
H       -1.1289  -0.0467  2.2609
H       -2.0387  -2.0853  1.5371
H       -3.4130  -1.0108  1.5372
H       0.5413  -2.2694  1.2204
H       1.5120  -1.0444  1.6322
H       3.3589  -0.9467  -1.6666
H       3.2614  -0.0749  -0.1497
H       -0.7699  -2.2348  -0.9539
H       -1.1952  -1.0416  -1.9662
