27

Co      -0.0021  -0.0190  0.0015
Cl      -1.0936  1.6254  -1.2207
Cl      1.1624  1.4500  1.3654
C       2.6539  -0.7081  -0.8145
C       2.1363  -1.9393  -0.1010
C       -2.5349  -1.3085  -0.4475
C       -2.4067  -1.1490  1.0528
N       1.4736  0.0663  -1.2822
N       1.0693  -1.4793  0.8411
N       -1.1421  -1.3093  -1.0081
N       -1.4415  -0.0515  1.2993
H       2.9211  -2.4510  0.4328
H       1.6983  -2.6416  -0.7971
H       -3.0608  -0.4771  -0.8802
H       -3.0490  -2.2193  -0.7123
H       1.6918  1.0453  -1.3428
H       1.1931  -0.2117  -2.2016
H       -1.8830  0.8456  1.1885
H       -1.0922  -0.0638  2.2372
H       -2.0201  -2.0513  1.5046
H       -3.3593  -0.9385  1.5108
H       0.5530  -2.2624  1.1888
H       1.5019  -1.0393  1.6337
H       3.2966  -0.9686  -1.6398
H       3.2097  -0.0840  -0.1368
H       -0.7810  -2.2422  -1.0077
H       -1.1838  -1.0009  -1.9604
