27

Co      -0.0329  -0.0112  -0.0044
Cl      -1.0958  1.6311  -1.2198
Cl      1.1736  1.4588  1.3786
C       2.6699  -0.7099  -0.7953
C       2.1358  -1.9404  -0.1219
C       -2.5318  -1.2949  -0.4458
C       -2.3935  -1.1556  1.0442
N       1.5141  0.0556  -1.3391
N       1.1130  -1.5219  0.8869
N       -1.1451  -1.3318  -1.0099
N       -1.4607  -0.0406  1.3146
H       2.8838  -2.4997  0.4205
H       1.7001  -2.6067  -0.8559
H       -3.0778  -0.4526  -0.8345
H       -3.0194  -2.2004  -0.7741
H       1.6944  1.0447  -1.3617
H       1.1684  -0.2120  -2.2402
H       -1.8791  0.8674  1.2117
H       -1.0474  -0.0648  2.2274
H       -1.9938  -2.0738  1.4528
H       -3.3310  -0.9569  1.5383
H       0.6010  -2.3079  1.2290
H       1.4904  -1.0077  1.6690
H       3.3100  -0.9191  -1.6408
H       3.2252  -0.1168  -0.0899
H       -0.7197  -2.2415  -0.9513
H       -1.1409  -1.0283  -1.9628
