27

Co      -0.0039  -0.0143  0.0013
Cl      -1.1091  1.6442  -1.2289
Cl      1.1810  1.4765  1.3826
C       2.6976  -0.7309  -0.8102
C       2.1783  -1.9762  -0.0845
C       -2.5782  -1.3237  -0.4569
C       -2.4313  -1.1892  1.0621
N       1.4840  0.0705  -1.2866
N       1.0951  -1.4929  0.8083
N       -1.1717  -1.3226  -0.9886
N       -1.4706  -0.0432  1.2919
H       2.9315  -2.5340  0.4578
H       1.7383  -2.6423  -0.8167
H       -3.0608  -0.4421  -0.8468
H       -3.1239  -2.1962  -0.7913
H       1.7111  1.0496  -1.3486
H       1.2187  -0.2077  -2.2090
H       -1.9345  0.8407  1.1762
H       -1.1121  -0.0399  2.2300
H       -2.0219  -2.0776  1.5229
H       -3.3784  -0.9818  1.5353
H       0.5502  -2.2594  1.1536
H       1.5107  -1.0475  1.6083
H       3.2851  -1.0224  -1.6677
H       3.3013  -0.0911  -0.1816
H       -0.7913  -2.2513  -0.9435
H       -1.1884  -1.0509  -1.9549
