27

Co      0.0320  -0.0020  0.0018
Cl      -1.0943  1.6178  -1.2195
Cl      1.1523  1.4352  1.3566
C       2.6584  -0.7058  -0.8302
C       2.1311  -1.9382  -0.0908
C       -2.5317  -1.3127  -0.4466
C       -2.4342  -1.1610  1.0723
N       1.4723  0.0716  -1.2834
N       1.0480  -1.4618  0.8277
N       -1.1437  -1.3273  -1.0315
N       -1.4860  -0.0464  1.3446
H       2.9557  -2.4456  0.3873
H       1.6560  -2.6337  -0.7669
H       -2.9982  -0.4561  -0.9046
H       -3.1242  -2.1919  -0.6628
H       1.7354  1.0353  -1.4245
H       1.2652  -0.2616  -2.2095
H       -1.9730  0.8277  1.2347
H       -1.1993  -0.0613  2.3087
H       -2.0309  -2.0409  1.5548
H       -3.4241  -0.9976  1.4723
H       0.5241  -2.2497  1.1605
H       1.5400  -1.1162  1.6367
H       3.3456  -1.0304  -1.5972
H       3.1811  -0.0405  -0.1618
H       -0.8621  -2.2913  -1.0801
H       -1.2369  -1.0259  -1.9864
