27

Co      -0.0219  -0.0013  -0.0131
Cl      -1.0769  1.5844  -1.1969
Cl      1.1752  1.4578  1.3777
C       2.7194  -0.7081  -0.8328
C       2.1662  -1.9857  -0.0875
C       -2.5579  -1.3227  -0.4603
C       -2.4249  -1.1678  1.0706
N       1.4886  0.0938  -1.3165
N       1.0738  -1.4724  0.8607
N       -1.1649  -1.3043  -1.0421
N       -1.4766  -0.0174  1.3331
H       2.9029  -2.5693  0.4509
H       1.6839  -2.6364  -0.8076
H       -3.0679  -0.4597  -0.8590
H       -3.0925  -2.2081  -0.7653
H       1.6970  1.0771  -1.3631
H       1.2250  -0.1799  -2.2430
H       -1.9412  0.8700  1.2460
H       -1.0990  -0.0399  2.2619
H       -2.0121  -2.0522  1.5348
H       -3.3832  -0.9762  1.5273
H       0.5378  -2.2303  1.2404
H       1.5132  -1.0022  1.6338
H       3.3435  -0.9570  -1.6788
H       3.2792  -0.0668  -0.1694
H       -0.7825  -2.2320  -1.0597
H       -1.2105  -0.9735  -1.9873
