27

Co      0.0219  -0.0066  0.0151
Cl      -1.0889  1.6195  -1.2228
Cl      1.1271  1.4048  1.3281
C       2.6352  -0.6924  -0.8410
C       2.1141  -1.9193  -0.0763
C       -2.4943  -1.2981  -0.4528
C       -2.4021  -1.1405  1.0647
N       1.4662  0.0975  -1.3049
N       1.0192  -1.4939  0.8537
N       -1.1006  -1.3118  -1.0132
N       -1.4434  -0.0385  1.3428
H       2.9542  -2.4119  0.3877
H       1.6476  -2.6254  -0.7489
H       -2.9603  -0.4494  -0.9232
H       -3.0773  -2.1837  -0.6652
H       1.7244  1.0623  -1.4152
H       1.2661  -0.2134  -2.2413
H       -1.9235  0.8413  1.2570
H       -1.1445  -0.0711  2.2988
H       -2.0050  -2.0240  1.5470
H       -3.3891  -0.9690  1.4682
H       0.5014  -2.3035  1.1428
H       1.4953  -1.1815  1.6896
H       3.3103  -1.0525  -1.6067
H       3.1763  -0.0246  -0.1935
H       -0.8106  -2.2699  -1.0365
H       -1.1735  -1.0243  -1.9725
