27

Co      -0.0250  -0.0488  -0.0034
Cl      0.0002  -2.2203  -0.2147
Cl      -0.0001  2.2877  0.2215
N       -1.5382  0.1152  -1.3025
N       -1.5382  -0.1052  1.2990
N       1.5792  0.1325  -1.4026
N       1.5792  -0.1221  1.3992
C       -2.7808  0.4776  -0.6107
C       -2.7810  -0.4769  0.6141
C       2.7808  0.4730  -0.6200
C       2.7810  -0.4719  0.6234
H       -0.9995  0.8328  -1.8770
H       -2.9476  1.5199  -0.3554
H       -3.5797  0.1354  -1.2504
H       -3.5842  -0.1276  1.2494
H       -2.9483  -1.5191  0.3655
H       -1.4717  0.8507  1.6536
H       -1.0369  -0.7660  1.9472
H       1.5498  -0.7646  -1.8648
H       1.0816  0.8681  -1.9600
H       3.6252  0.1268  -1.2050
H       2.9378  1.5116  -0.3734
H       2.9386  -1.5105  0.3835
H       3.6252  -0.1184  1.2085
H       1.1188  -0.8008  2.0304
H       1.5223  0.8286  1.7777
H       -1.4944  -0.7871  -1.7408
