27

Co      0.0741  -0.0061  0.0389
Cl      -0.0063  -2.2713  -0.2141
Cl      -0.0067  2.2754  0.2101
N       -1.4270  0.1716  -1.3371
N       -1.3616  -0.1758  1.3002
N       1.3599  0.1574  -1.2925
N       1.2944  -0.1612  1.2557
C       -2.7620  0.3897  -0.6899
C       -2.7131  -0.3686  0.6530
C       2.7065  0.3877  -0.6907
C       2.6575  -0.3662  0.6540
H       -1.3317  0.8987  -2.0278
H       -2.8141  1.4638  -0.5739
H       -3.6697  0.0455  -1.1870
H       -3.5916  -0.0812  1.2121
H       -2.7371  -1.4385  0.5044
H       -1.5585  0.6272  1.8982
H       -1.2953  -0.9361  1.9659
H       1.5439  -0.6576  -1.8581
H       1.2107  0.8923  -1.9649
H       3.5915  0.0436  -1.2097
H       2.7587  1.4656  -0.5734
H       2.6819  -1.4399  0.5040
H       3.5178  -0.0788  1.2303
H       1.1740  -0.9291  1.9032
H       1.4779  0.6311  1.8585
H       -1.6288  -0.6562  -1.8979
