27

Co      0.0250  -0.0061  0.0389
Cl      0.0002  -2.2750  -0.2216
Cl      -0.0001  2.2792  0.2176
N       -1.3803  0.1785  -1.3332
N       -1.3934  -0.1827  1.3700
N       1.4179  0.1648  -1.3066
N       1.2739  -0.1686  1.1962
C       -2.7144  0.3796  -0.6663
C       -2.7147  -0.3732  0.6491
C       2.7636  0.3989  -0.6770
C       2.6656  -0.3626  0.6206
H       -1.4175  0.8073  -2.1724
H       -2.6343  1.4499  -0.4756
H       -3.6664  0.1765  -1.1636
H       -3.6766  -0.2024  1.1494
H       -2.6063  -1.4394  0.4404
H       -1.4904  0.7471  1.7647
H       -1.4793  -0.8250  2.2137
H       1.5015  -0.7970  -1.6433
H       1.4339  0.7555  -2.1848
H       3.7092  0.1753  -1.1699
H       2.6972  1.4692  -0.4969
H       2.5712  -1.4289  0.3930
H       3.5472  -0.2204  1.2298
H       1.2946  -0.8120  2.0200
H       1.3373  0.7558  1.5995
H       -1.4625  -0.7613  -1.7202
