27

Co      0.0250  0.0000  0.0000
Cl      0.0002  -2.2379  -0.2142
Cl      -0.0001  2.2379  0.2143
N       -1.4483  0.1443  -1.3510
N       -1.4483  -0.1444  1.3509
N       1.4074  0.1306  -1.2508
N       1.4073  -0.1303  1.2508
C       -2.7370  0.4070  -0.6395
C       -2.7372  -0.4063  0.6395
C       2.7371  0.4115  -0.6306
C       2.7372  -0.4104  0.6306
H       -1.2864  0.8841  -2.0058
H       -2.7812  1.4617  -0.4266
H       -3.5769  0.1465  -1.2610
H       -3.5769  -0.1454  1.2611
H       -2.7818  -1.4610  0.4266
H       -1.5116  0.7188  1.8621
H       -1.2869  -0.8846  2.0053
H       1.4527  -0.7422  -1.7407
H       1.2047  0.8519  -1.9195
H       3.5314  0.1507  -1.3067
H       2.7949  1.4663  -0.4136
H       2.7958  -1.4652  0.4136
H       3.5313  -0.1491  1.3068
H       1.2048  -0.8520  1.9192
H       1.4522  0.7423  1.7411
H       -1.5119  -0.7191  -1.8617
