27

Co      0.0250  0.0488  0.0034
Cl      0.0002  -2.2716  -0.2176
Cl      -0.0001  2.2043  0.2109
N       -1.4386  0.1344  -1.3493
N       -1.4386  -0.1446  1.3526
N       1.3977  0.1207  -1.2491
N       1.3976  -0.1305  1.2525
C       -2.7370  0.4021  -0.6315
C       -2.7372  -0.4014  0.6281
C       2.7371  0.4067  -0.6225
C       2.7372  -0.4056  0.6193
H       -1.4504  0.8601  -2.0654
H       -2.7957  1.4520  -0.4122
H       -3.4800  0.1674  -1.3936
H       -3.4799  -0.1731  1.3904
H       -2.7964  -1.4513  0.4021
H       -1.5978  0.6626  1.9495
H       -1.4138  -0.9280  1.9942
H       1.5120  -0.7499  -1.7406
H       1.3687  0.8280  -1.9791
H       3.4344  0.1716  -1.4393
H       2.8095  1.4566  -0.3992
H       2.8103  -1.4555  0.3891
H       3.4343  -0.1767  1.4361
H       1.3318  -0.8954  1.9081
H       1.5384  0.6860  1.8285
H       -1.5712  -0.7269  -1.8616
