27

Co      0.0250  0.0000  0.0000
Cl      0.0002  -2.3177  -0.2138
Cl      -0.0001  2.3178  0.2139
N       -1.4232  0.1758  -1.3481
N       -1.4232  -0.1760  1.3480
N       1.3822  0.1584  -1.2479
N       1.3822  -0.1581  1.2479
C       -2.7393  0.3791  -0.6583
C       -2.7395  -0.3784  0.6583
C       2.7393  0.3836  -0.6493
C       2.7395  -0.3825  0.6494
H       -1.2633  0.9568  -1.9525
H       -2.8519  1.4375  -0.4936
H       -3.5518  0.0408  -1.2864
H       -3.5517  -0.0397  1.2866
H       -2.8526  -1.4368  0.4936
H       -1.4552  0.6611  1.9095
H       -1.2637  -0.9573  1.9521
H       1.4000  -0.6845  -1.7844
H       1.1815  0.9209  -1.8700
H       3.5062  0.0487  -1.3321
H       2.8620  1.4458  -0.4768
H       2.8628  -1.4447  0.4769
H       3.5061  -0.0471  1.3322
H       1.1817  -0.9209  1.8697
H       1.3994  0.6846  1.7848
H       -1.4554  -0.6615  -1.9092
