27

Co      0.0000  -0.0488  -0.0034
Cl      0.0002  -2.2667  -0.2200
Cl      -0.0001  2.3341  0.2269
N       -1.5316  0.1227  -1.4153
N       -1.5316  -0.1127  1.4118
N       1.5316  0.1264  -1.4152
N       1.5316  -0.1160  1.4119
C       -2.7533  0.4335  -0.6060
C       -2.7535  -0.4328  0.6094
C       2.7534  0.4335  -0.6062
C       2.7535  -0.4324  0.6096
H       -1.2690  0.8938  -1.9992
H       -2.7965  1.4709  -0.3069
H       -3.5512  0.2410  -1.3114
H       -3.5556  -0.2332  1.3104
H       -2.7971  -1.4702  0.3170
H       -1.4448  0.8190  1.8168
H       -1.3065  -0.8270  2.0694
H       1.4637  -0.7556  -1.9073
H       1.2692  0.8973  -1.9957
H       3.5511  0.2369  -1.3115
H       2.8003  1.4672  -0.3113
H       2.8011  -1.4661  0.3214
H       3.5511  -0.2286  1.3150
H       1.3064  -0.8300  2.0660
H       1.4362  0.8197  1.8202
H       -1.4674  -0.7554  -1.9040
