27

Co      0.0000  0.0488  0.0034
Cl      0.0002  -2.3122  -0.2118
Cl      -0.0001  2.2449  0.2051
N       -1.4149  0.1720  -1.2775
N       -1.4149  -0.1823  1.2807
N       1.4149  0.1682  -1.2774
N       1.4149  -0.1780  1.2808
C       -2.7794  0.3768  -0.6735
C       -2.7797  -0.3761  0.6701
C       2.7795  0.3768  -0.6736
C       2.7796  -0.3757  0.6703
H       -1.3272  0.8944  -1.9800
H       -2.8382  1.4488  -0.5524
H       -3.6515  0.0389  -1.2240
H       -3.6469  -0.0445  1.2253
H       -2.8389  -1.4481  0.5423
H       -1.6095  0.5990  1.9109
H       -1.2906  -0.9623  1.9088
H       1.5911  -0.6636  -1.8189
H       1.3274  0.8904  -1.9840
H       3.6515  0.0423  -1.2241
H       2.8346  1.4526  -0.5493
H       2.8354  -1.4515  0.5392
H       3.6514  -0.0474  1.2209
H       1.2905  -0.9578  1.9129
H       1.6175  0.5997  1.9068
H       -1.5873  -0.6633  -1.8230
