27

Co      0.0000  0.0000  0.0000
Cl      0.0002  -2.2612  -0.2181
Cl      -0.0001  2.2612  0.2182
N       -1.5900  0.1241  -1.3914
N       -1.5900  -0.1242  1.3913
N       1.5901  0.1277  -1.3913
N       1.5900  -0.1274  1.3913
C       -2.7523  0.4082  -0.5824
C       -2.7526  -0.4075  0.5824
C       2.7524  0.4081  -0.5825
C       2.7526  -0.4070  0.5826
H       -1.3759  0.8768  -2.0123
H       -2.8448  1.4484  -0.3053
H       -3.5691  0.1619  -1.2406
H       -3.5736  -0.1608  1.2362
H       -2.8455  -1.4449  0.3053
H       -1.5167  0.7732  1.8485
H       -1.3763  -0.8773  2.0118
H       1.5086  -0.7738  -1.8516
H       1.3761  0.8802  -2.0088
H       3.5691  0.1577  -1.2407
H       2.8487  1.4418  -0.3097
H       2.8495  -1.4407  0.3097
H       3.5690  -0.1562  1.2409
H       1.3763  -0.8803  2.0084
H       1.5081  0.7739  1.8519
H       -1.5124  -0.7736  -1.8482
