27

Co      0.0000  0.0000  0.0000
Cl      0.0002  -2.2894  -0.2159
Cl      -0.0001  2.2895  0.2160
N       -1.5101  0.1459  -1.3295
N       -1.5101  -0.1460  1.3294
N       1.5101  0.1458  -1.3294
N       1.5100  -0.1455  1.3294
C       -2.7168  0.4144  -0.6187
C       -2.7170  -0.4137  0.6187
C       2.7169  0.4144  -0.6189
C       2.7170  -0.4133  0.6189
H       -1.2680  0.8838  -1.9640
H       -2.9224  1.4719  -0.4601
H       -3.5311  -0.0039  -1.2089
H       -3.5310  0.0050  1.2091
H       -2.9230  -1.4684  0.4601
H       -1.6806  0.6876  1.8727
H       -1.2684  -0.8843  1.9636
H       1.6808  -0.6882  -1.8720
H       1.2682  0.8835  -1.9643
H       3.5310  -0.0043  -1.2091
H       2.9225  1.4691  -0.4607
H       2.9233  -1.4680  0.4608
H       3.5310  0.0059  1.2092
H       1.2683  -0.8836  1.9639
H       1.6803  0.6883  1.8723
H       -1.6808  -0.6879  -1.8724
