27

Co      0.0000  0.0000  0.0000
Cl      0.0002  -2.3249  -0.2138
Cl      -0.0001  2.3249  0.2139
N       -1.3964  0.1735  -1.3419
N       -1.3964  -0.1736  1.3418
N       1.3965  0.1696  -1.3419
N       1.3964  -0.1694  1.3419
C       -2.7390  0.3696  -0.6669
C       -2.7392  -0.3689  0.6669
C       2.7391  0.3695  -0.6670
C       2.7392  -0.3684  0.6671
H       -1.4508  0.9516  -2.0149
H       -2.7933  1.4367  -0.5310
H       -3.5440  0.0766  -1.3234
H       -3.5394  -0.0755  1.3280
H       -2.7939  -1.4360  0.5310
H       -1.6648  0.5977  1.9861
H       -1.4512  -0.9521  2.0144
H       1.6733  -0.5983  -1.9817
H       1.4510  0.9475  -2.0189
H       3.5439  0.0800  -1.3235
H       2.7896  1.4405  -0.5278
H       2.7905  -1.4394  0.5279
H       3.5439  -0.0784  1.3237
H       1.4511  -0.9476  2.0185
H       1.6728  0.5984  1.9820
H       -1.6696  -0.5981  -1.9858
