27

Co      0.0000  -0.0061  0.0389
Cl      0.0002  -2.2765  -0.2105
Cl      -0.0001  2.2806  0.2065
N       -1.4098  0.1674  -1.3145
N       -1.3443  -0.1716  1.2776
N       1.4098  0.1636  -1.3144
N       1.3443  -0.1674  1.2776
C       -2.8406  0.4075  -0.7059
C       -2.7917  -0.3864  0.6690
C       2.8406  0.4075  -0.7060
C       2.7917  -0.3859  0.6692
H       -1.4162  0.9081  -2.0165
H       -2.8860  1.4739  -0.5712
H       -3.6054  0.1185  -1.4191
H       -3.5272  -0.1542  1.4442
H       -2.8089  -1.4515  0.5017
H       -1.6079  0.6008  1.9192
H       -1.3798  -0.9455  1.9546
H       1.6818  -0.6281  -1.9148
H       1.4164  0.9041  -2.0204
H       3.6054  0.1219  -1.4192
H       2.8824  1.4805  -0.5680
H       2.8055  -1.4549  0.4986
H       3.5317  -0.1571  1.4398
H       1.3797  -0.9410  1.9588
H       1.6159  0.6016  1.9151
H       -1.6781  -0.6298  -1.9189
