27

Co      -0.0741  0.0061  -0.0389
Cl      0.0068  -2.2523  -0.2085
Cl      0.0064  2.2483  0.2127
N       -1.4765  0.1478  -1.3372
N       -1.4634  -0.1438  1.3002
N       1.4651  0.1581  -1.3081
N       1.6091  -0.1537  1.4185
C       -2.7742  0.4013  -0.6315
C       -2.7744  -0.4063  0.6487
C       2.7808  0.3885  -0.6113
C       2.8791  -0.4226  0.6678
H       -1.3002  0.9068  -1.9717
H       -2.8199  1.4540  -0.4152
H       -3.6017  0.1455  -1.2732
H       -3.5869  -0.1174  1.2921
H       -2.8492  -1.4631  0.4504
H       -1.4967  0.7122  1.8192
H       -1.2393  -0.8902  1.9294
H       1.5201  -0.6831  -1.8541
H       1.3234  0.9286  -1.9357
H       3.5915  0.1602  -1.2899
H       2.8227  1.4413  -0.3788
H       2.9503  -1.4794  0.4827
H       3.7534  -0.1120  1.2304
H       1.4586  -0.8722  2.0998
H       1.6832  0.7245  1.8987
H       -1.5297  -0.6986  -1.8631
