27

Co      0.0250  0.0000  0.0000
Cl      0.0002  -2.2843  -0.2195
Cl      -0.0001  2.2843  0.2196
N       -1.4003  0.1455  -1.3770
N       -1.4788  -0.1456  1.4505
N       1.4379  0.1318  -1.3504
N       1.3593  -0.1315  1.2767
C       -2.6721  0.3972  -0.6345
C       -2.7214  -0.4113  0.6541
C       2.7212  0.4165  -0.6452
C       2.6723  -0.4007  0.6256
H       -1.2340  0.9077  -2.0003
H       -2.6971  1.4519  -0.4124
H       -3.5222  0.1616  -1.2508
H       -3.6106  -0.1507  1.2116
H       -2.7469  -1.4659  0.4468
H       -1.5567  0.7171  1.9595
H       -1.3326  -0.8886  2.1029
H       1.4978  -0.7405  -1.8381
H       1.2504  0.8559  -2.0171
H       3.5650  0.1559  -1.2571
H       2.7600  1.4712  -0.4337
H       2.7117  -1.4554  0.3994
H       3.4766  -0.1642  1.2966
H       1.1524  -0.8756  1.9137
H       1.3991  0.7259  1.7943
H       -1.4588  -0.7028  -1.9150
