27

Co      0.0000  -0.0488  -0.0034
Cl      0.0002  -2.3002  -0.2142
Cl      -0.0001  2.3676  0.2211
N       -1.5152  0.1530  -1.3497
N       -1.5152  -0.1431  1.3462
N       1.5153  0.1530  -1.3496
N       1.5152  -0.1426  1.3463
C       -2.7960  0.4080  -0.6200
C       -2.7962  -0.4073  0.6233
C       2.7961  0.4079  -0.6201
C       2.7962  -0.4068  0.6236
H       -1.2492  0.9527  -1.8999
H       -2.9267  1.4491  -0.3710
H       -3.5365  0.1251  -1.3667
H       -3.5410  -0.1173  1.3657
H       -2.9274  -1.4484  0.3811
H       -1.3923  0.7703  1.7889
H       -1.2867  -0.8859  1.9701
H       1.4149  -0.7070  -1.8757
H       1.2494  0.9524  -1.9001
H       3.5365  0.1247  -1.3668
H       2.9268  1.4491  -0.3716
H       2.9277  -1.4480  0.3817
H       3.5364  -0.1164  1.3703
H       1.2866  -0.8851  1.9705
H       1.3875  0.7710  1.7886
H       -1.4149  -0.7067  -1.8761
