27

Co      0.0000  0.0000  0.0000
Cl      0.0002  -2.2966  -0.2159
Cl      -0.0001  2.2967  0.2160
N       -1.5507  0.1553  -1.4005
N       -1.5507  -0.1554  1.4004
N       1.5508  0.1552  -1.4004
N       1.5507  -0.1549  1.4004
C       -2.7205  0.3868  -0.6108
C       -2.7207  -0.3861  0.6108
C       2.7205  0.3868  -0.6109
C       2.7207  -0.3857  0.6110
H       -1.1834  0.9329  -1.9484
H       -2.8550  1.4356  -0.3866
H       -3.6153  0.0456  -1.1248
H       -3.6198  -0.0445  1.1205
H       -2.8556  -1.4321  0.3866
H       -1.3687  0.7466  1.8609
H       -1.1838  -0.9335  1.9479
H       1.3644  -0.7472  -1.8602
H       1.1836  0.9326  -1.9486
H       3.6153  0.0452  -1.1250
H       2.8551  1.4328  -0.3872
H       2.8559  -1.4317  0.3873
H       3.6152  -0.0436  1.1251
H       1.1837  -0.9327  1.9483
H       1.3639  0.7473  1.8606
H       -1.3644  -0.7470  -1.8606
