27

Co      0.0250  0.0488  0.0034
Cl      0.0002  -2.3159  -0.2193
Cl      -0.0001  2.2487  0.2126
N       -1.4722  0.1444  -1.3374
N       -1.4722  -0.1546  1.3406
N       1.4313  0.1306  -1.2372
N       1.4312  -0.1405  1.2405
C       -2.7712  0.4053  -0.6412
C       -2.7714  -0.4046  0.6378
C       2.7712  0.4098  -0.6322
C       2.7714  -0.4087  0.6289
H       -1.3289  0.8573  -2.0275
H       -2.8273  1.4600  -0.4368
H       -3.6026  0.1295  -1.2729
H       -3.6025  -0.1352  1.2697
H       -2.8279  -1.4593  0.4267
H       -1.5439  0.6800  1.8973
H       -1.2923  -0.9251  1.9563
H       1.4580  -0.7673  -1.6884
H       1.2471  0.8251  -1.9412
H       3.5570  0.1337  -1.3186
H       2.8410  1.4646  -0.4237
H       2.8419  -1.4635  0.4137
H       3.5569  -0.1388  1.3154
H       1.2102  -0.8925  1.8702
H       1.4844  0.7035  1.7763
H       -1.5172  -0.7443  -1.8094
