27

Co      0.0741  -0.0061  0.0389
Cl      -0.0063  -2.2765  -0.2105
Cl      -0.0067  2.2806  0.2065
N       -1.4600  0.1757  -1.2966
N       -1.4731  -0.1799  1.3333
N       1.4714  0.1615  -1.3256
N       1.3274  -0.1653  1.2152
C       -2.8027  0.3852  -0.6619
C       -2.8029  -0.3788  0.6448
C       2.7963  0.3979  -0.6824
C       2.6982  -0.3616  0.6260
H       -1.2843  0.9388  -1.9165
H       -2.9417  1.4457  -0.5048
H       -3.5928  0.0269  -1.3108
H       -3.6075  -0.0528  1.2922
H       -2.9137  -1.4351  0.4697
H       -1.5165  0.6586  1.8856
H       -1.3461  -0.9565  1.9578
H       1.4973  -0.6890  -1.8455
H       1.2615  0.9127  -1.9567
H       3.6029  0.0152  -1.2943
H       2.9354  1.4622  -0.5387
H       2.8095  -1.4218  0.4349
H       3.4409  -0.0602  1.3542
H       1.1266  -0.9692  1.7919
H       1.3332  0.6477  1.8017
H       -1.4840  -0.6729  -1.8411
