27

Co      -0.0250  0.0061  -0.0389
Cl      0.0002  -2.2595  -0.2085
Cl      -0.0001  2.2555  0.2127
N       -1.5389  0.1513  -1.3804
N       -1.5258  -0.1473  1.3434
N       1.5014  0.1649  -1.4068
N       1.6453  -0.1605  1.5173
C       -2.7927  0.4116  -0.6230
C       -2.7929  -0.4166  0.6402
C       2.7437  0.3922  -0.6126
C       2.8420  -0.4263  0.6691
H       -1.1488  0.9196  -1.9376
H       -2.8846  1.4555  -0.3724
H       -3.6461  0.1264  -1.2178
H       -3.6358  -0.0983  1.2322
H       -2.9139  -1.4646  0.4076
H       -1.3248  0.7680  1.7822
H       -1.0879  -0.9030  1.8954
H       1.3143  -0.7193  -1.9022
H       1.1328  0.9709  -1.9212
H       3.6032  0.1313  -1.2117
H       2.8220  1.4362  -0.3524
H       2.9496  -1.4744  0.4563
H       3.7651  -0.0831  1.1521
H       1.2679  -0.9145  2.0853
H       1.4774  0.7607  1.9467
H       -1.3533  -0.7545  -1.8261
