27

Co      0.0000  0.0488  0.0034
Cl      0.0002  -2.3623  -0.2246
Cl      -0.0001  2.2950  0.2180
N       -1.3881  0.1448  -1.3534
N       -1.3881  -0.1550  1.3567
N       1.3881  0.1447  -1.3533
N       1.3880  -0.1545  1.3567
C       -2.7848  0.3914  -0.6806
C       -2.7851  -0.3907  0.6772
C       2.7849  0.3914  -0.6807
C       2.7851  -0.3903  0.6774
H       -1.3689  0.8474  -2.0965
H       -2.6063  1.4569  -0.4613
H       -3.7299  0.2903  -1.2341
H       -3.7254  -0.2959  1.2354
H       -2.6069  -1.4590  0.4512
H       -1.4970  0.6676  1.9249
H       -1.3323  -0.9152  2.0253
H       1.4748  -0.7322  -1.8367
H       1.3691  0.8471  -2.0967
H       3.7299  0.2899  -1.2343
H       2.6064  1.4597  -0.4619
H       2.6072  -1.4586  0.4518
H       3.7299  -0.2951  1.2311
H       1.3322  -0.9145  2.0257
H       1.5013  0.6683  1.9246
H       -1.4749  -0.7319  -1.8371
