27

Co      0.0000  0.0000  0.0000
Cl      0.0002  -2.3177  -0.2138
Cl      -0.0001  2.3178  0.2139
N       -1.3565  0.1707  -1.3014
N       -1.3565  -0.1708  1.3013
N       1.3565  0.1669  -1.3013
N       1.3564  -0.1666  1.3013
C       -2.7804  0.4022  -0.6971
C       -2.7806  -0.4015  0.6971
C       2.7805  0.4021  -0.6973
C       2.7806  -0.4010  0.6974
H       -1.2203  0.9115  -1.9669
H       -2.7898  1.4714  -0.5540
H       -3.6335  0.1180  -1.2948
H       -3.6290  -0.1169  1.2994
H       -2.7905  -1.4734  0.5540
H       -1.5376  0.6448  1.8791
H       -1.2207  -0.9120  1.9664
H       1.5461  -0.6454  -1.8747
H       1.2204  0.9074  -1.9709
H       3.6335  0.1214  -1.2949
H       2.7862  1.4779  -0.5509
H       2.7870  -1.4768  0.5509
H       3.6334  -0.1198  1.2951
H       1.2206  -0.9075  1.9705
H       1.5456  0.6455  1.8751
H       -1.5423  -0.6451  -1.8788
