27

Co      0.0000  0.0427  0.0422
Cl      0.0002  -2.2767  -0.2196
Cl      -0.0001  2.2135  0.2089
N       -1.3879  0.1412  -1.3416
N       -1.4010  -0.1555  1.3817
N       1.4665  0.1411  -1.4152
N       1.3224  -0.1550  1.3081
C       -2.7863  0.3960  -0.6891
C       -2.7866  -0.3896  0.6686
C       2.8355  0.4107  -0.7089
C       2.7375  -0.3744  0.6492
H       -1.3464  0.8373  -2.0839
H       -2.6172  1.4635  -0.4755
H       -3.7290  0.2851  -1.2369
H       -3.7392  -0.3177  1.2193
H       -2.5893  -1.4558  0.4303
H       -1.5249  0.6621  1.9520
H       -1.3711  -0.9223  2.0545
H       1.5681  -0.7533  -1.8638
H       1.4447  0.8174  -2.1873
H       3.8174  0.2749  -1.1977
H       2.6664  1.4811  -0.5105
H       2.5405  -1.4407  0.3966
H       3.6553  -0.3267  1.2542
H       1.2729  -0.9412  1.9518
H       1.4310  0.6481  1.9075
H       -1.4700  -0.7403  -1.8200
