27

Co      -0.0250  0.0000  0.0000
Cl      0.0002  -2.2894  -0.2159
Cl      -0.0001  2.2895  0.2160
N       -1.4920  0.1406  -1.3331
N       -1.4135  -0.1407  1.2594
N       1.4545  0.1541  -1.3596
N       1.5330  -0.1538  1.4332
C       -2.7909  0.4148  -0.6450
C       -2.7421  -0.3994  0.6254
C       2.7419  0.3955  -0.6346
C       2.7911  -0.4091  0.6543
H       -1.3062  0.8684  -1.9979
H       -2.8487  1.4695  -0.4400
H       -3.6227  0.1373  -1.2708
H       -3.5343  -0.1460  1.3102
H       -2.8003  -1.4541  0.4057
H       -1.4484  0.7130  1.7803
H       -1.2084  -0.8886  1.8943
H       1.5079  -0.6909  -1.9002
H       1.2902  0.9196  -1.9815
H       3.5799  0.1422  -1.2647
H       2.7861  1.4503  -0.4199
H       2.8360  -1.4639  0.4543
H       3.6682  -0.1308  1.2256
H       1.3885  -0.9000  2.0843
H       1.6055  0.7057  1.9448
H       -1.5469  -0.7281  -1.8242
