27

Co      0.0000  -0.0488  -0.0034
Cl      0.0002  -2.2166  -0.2072
Cl      -0.0001  2.2840  0.2140
N       -1.5313  0.1563  -1.3563
N       -1.5313  -0.1463  1.3528
N       1.5313  0.1562  -1.3562
N       1.5313  -0.1459  1.3529
C       -2.7975  0.4145  -0.6297
C       -2.7977  -0.4138  0.6330
C       2.7975  0.4145  -0.6298
C       2.7977  -0.4134  0.6333
H       -1.1119  0.9415  -1.8839
H       -2.9088  1.4605  -0.3870
H       -3.6399  0.1092  -1.2291
H       -3.6444  -0.1014  1.2280
H       -2.9095  -1.4598  0.3971
H       -1.3310  0.7960  1.7503
H       -1.1493  -0.8747  1.9542
H       1.3537  -0.7327  -1.8371
H       1.1121  0.9412  -1.8842
H       3.6399  0.1088  -1.2292
H       2.9090  1.4605  -0.3876
H       2.9098  -1.4594  0.3978
H       3.6399  -0.1005  1.2327
H       1.1493  -0.8740  1.9545
H       1.3262  0.7968  1.7499
H       -1.3537  -0.7324  -1.8375
