27

Co      0.0250  0.0427  0.0422
Cl      0.0002  -2.3087  -0.2250
Cl      -0.0001  2.2455  0.2142
N       -1.3793  0.1643  -1.3315
N       -1.3924  -0.1786  1.3716
N       1.4169  0.1506  -1.3050
N       1.2728  -0.1645  1.1979
C       -2.7015  0.4093  -0.6626
C       -2.7017  -0.4029  0.6421
C       2.7506  0.4286  -0.6733
C       2.6526  -0.3923  0.6135
H       -1.4951  0.7617  -2.2234
H       -2.7482  1.4748  -0.5001
H       -3.5132  0.1240  -1.3135
H       -3.5234  -0.1566  1.2959
H       -2.7203  -1.4643  0.4548
H       -1.7020  0.6779  1.8694
H       -1.5198  -0.8468  2.1939
H       1.6860  -0.7918  -1.6605
H       1.5115  0.7099  -2.2358
H       3.5561  0.1227  -1.3199
H       2.8111  1.4941  -0.5214
H       2.6851  -1.4537  0.4075
H       3.3940  -0.1745  1.3764
H       1.3352  -0.8338  2.0003
H       1.5488  0.6866  1.7042
H       -1.6471  -0.7561  -1.7373
