27

Co      0.0000  -0.0488  -0.0034
Cl      0.0002  -2.2682  -0.2089
Cl      -0.0001  2.3355  0.2157
N       -1.5587  0.1708  -1.3882
N       -1.5587  -0.1608  1.3847
N       1.5587  0.1707  -1.3881
N       1.5586  -0.1603  1.3848
C       -2.8314  0.4059  -0.6526
C       -2.8316  -0.4052  0.6559
C       2.8314  0.4059  -0.6527
C       2.8316  -0.4048  0.6561
H       -1.2187  0.9494  -1.9517
H       -2.8749  1.4655  -0.4557
H       -3.7775  0.1048  -1.1226
H       -3.7775  -0.0970  1.1261
H       -2.8755  -1.4647  0.4658
H       -1.5163  0.7387  1.8361
H       -1.2562  -0.8826  2.0219
H       1.5435  -0.6753  -1.9229
H       1.2189  0.9491  -1.9519
H       3.7775  0.1045  -1.1227
H       2.8750  1.4655  -0.4563
H       2.8758  -1.4644  0.4665
H       3.7774  -0.0962  1.1262
H       1.2561  -0.8818  2.0222
H       1.5160  0.7394  1.8358
H       -1.5435  -0.6751  -1.9233
