27

Co      0.0000  0.0000  0.0000
Cl      0.0002  -2.2966  -0.2159
Cl      -0.0001  2.2967  0.2160
N       -1.4948  0.1522  -1.4038
N       -1.4948  -0.1523  1.4037
N       1.4948  0.1521  -1.4037
N       1.4948  -0.1518  1.4038
C       -2.7616  0.4028  -0.6446
C       -2.7618  -0.4021  0.6445
C       2.7617  0.4027  -0.6447
C       2.7618  -0.4016  0.6448
H       -1.3268  0.9133  -2.0302
H       -2.8006  1.4575  -0.4344
H       -3.6229  0.1447  -1.2414
H       -3.6228  -0.1436  1.2415
H       -2.8012  -1.4568  0.4345
H       -1.5534  0.6946  1.9356
H       -1.3272  -0.9138  2.0298
H       1.5537  -0.6953  -1.9349
H       1.3270  0.9130  -2.0305
H       3.6228  0.1443  -1.2415
H       2.8007  1.4575  -0.4351
H       2.8015  -1.4564  0.4351
H       3.6228  -0.1428  1.2417
H       1.3271  -0.9130  2.0301
H       1.5532  0.6953  1.9353
H       -1.5537  -0.6950  -1.9353
