27

Co      0.0000  0.0488  0.0034
Cl      0.0002  -2.2678  -0.2101
Cl      -0.0001  2.2005  0.2034
N       -1.3809  0.1596  -1.3199
N       -1.3809  -0.1698  1.3232
N       1.3809  0.1558  -1.3198
N       1.3809  -0.1656  1.3232
C       -2.7774  0.4084  -0.6807
C       -2.7776  -0.4077  0.6774
C       2.7774  0.4084  -0.6809
C       2.7776  -0.4072  0.6776
H       -1.1927  0.8944  -1.9698
H       -2.8498  1.4640  -0.4970
H       -3.5495  0.1184  -1.3802
H       -3.5495  -0.1241  1.3770
H       -2.8505  -1.4661  0.4869
H       -1.4224  0.6504  1.9053
H       -1.1561  -0.9623  1.8987
H       1.3994  -0.7150  -1.8133
H       1.1929  0.8904  -1.9738
H       3.5495  0.1218  -1.3804
H       2.8462  1.4706  -0.4938
H       2.8470  -1.4695  0.4838
H       3.5494  -0.1270  1.3771
H       1.1560  -0.9578  1.9028
H       1.4258  0.6511  1.9012
H       -1.3957  -0.7148  -1.8174
