27

Co      0.0250  0.0000  0.0000
Cl      0.0002  -2.2823  -0.2159
Cl      -0.0001  2.2823  0.2160
N       -1.4722  0.1494  -1.3391
N       -1.4722  -0.1495  1.3390
N       1.4313  0.1357  -1.2388
N       1.4312  -0.1354  1.2388
C       -2.7712  0.4053  -0.6395
C       -2.7714  -0.4046  0.6395
C       2.7712  0.4098  -0.6306
C       2.7714  -0.4087  0.6306
H       -1.3103  0.8909  -1.9922
H       -2.8273  1.4600  -0.4317
H       -3.6026  0.1329  -1.2712
H       -3.6025  -0.1318  1.2714
H       -2.8279  -1.4593  0.4317
H       -1.5304  0.7120  1.8535
H       -1.3108  -0.8915  1.9917
H       1.4715  -0.7353  -1.7322
H       1.2286  0.8588  -1.9059
H       3.5570  0.1371  -1.3169
H       2.8410  1.4646  -0.4187
H       2.8419  -1.4635  0.4187
H       3.5569  -0.1355  1.3171
H       1.2287  -0.8588  1.9056
H       1.4709  0.7354  1.7326
H       -1.5307  -0.7123  -1.8532
