27

Co      0.0741  0.0427  0.0422
Cl      -0.0063  -2.3049  -0.2175
Cl      -0.0067  2.2418  0.2067
N       -1.3509  0.1680  -1.3155
N       -1.3640  -0.1823  1.3556
N       1.3624  0.1538  -1.3445
N       1.2183  -0.1677  1.2375
C       -2.7870  0.3732  -0.7027
C       -2.7873  -0.3667  0.6822
C       2.7806  0.3859  -0.7232
C       2.6826  -0.3496  0.6635
H       -1.3312  0.8852  -2.0371
H       -2.6845  1.4444  -0.5313
H       -3.6958  0.1909  -1.2670
H       -3.7060  -0.2235  1.2495
H       -2.6566  -1.4367  0.4861
H       -1.4676  0.6240  1.9552
H       -1.3560  -0.9703  2.0077
H       1.4260  -0.7184  -1.8276
H       1.3084  0.8591  -2.0773
H       3.7059  0.1792  -1.2505
H       2.6783  1.4637  -0.5652
H       2.5523  -1.4234  0.4513
H       3.5439  -0.2310  1.3070
H       1.1365  -0.9829  1.8418
H       1.2888  0.6132  1.8713
H       -1.4127  -0.7023  -1.8232
