27

Co      0.0000  0.0000  0.0000
Cl      0.0002  -2.3215  -0.2213
Cl      -0.0001  2.3215  0.2214
N       -1.4214  0.1390  -1.2943
N       -1.4214  -0.1392  1.2942
N       1.4215  0.1390  -1.2943
N       1.4214  -0.1387  1.2943
C       -2.7355  0.4076  -0.6350
C       -2.7358  -0.4069  0.6350
C       2.7356  0.4075  -0.6351
C       2.7357  -0.4064  0.6352
H       -1.2373  0.8696  -1.9543
H       -2.7913  1.4623  -0.4231
H       -3.5477  0.1405  -1.2904
H       -3.5477  -0.1394  1.2906
H       -2.7920  -1.4615  0.4231
H       -1.4705  0.7287  1.7956
H       -1.2377  -0.8702  1.9538
H       1.4708  -0.7293  -1.7949
H       1.2375  0.8693  -1.9545
H       3.5477  0.1401  -1.2906
H       2.7914  1.4623  -0.4237
H       2.7923  -1.4612  0.4238
H       3.5476  -0.1385  1.2907
H       1.2377  -0.8694  1.9541
H       1.4703  0.7294  1.7953
H       -1.4708  -0.7290  -1.7953
