27

Co      -0.0250  0.0000  0.0000
Cl      0.0002  -2.2612  -0.2181
Cl      -0.0001  2.2612  0.2182
N       -1.5233  0.1189  -1.3446
N       -1.5233  -0.1190  1.3445
N       1.5643  0.1363  -1.4447
N       1.5643  -0.1360  1.4447
C       -2.7935  0.4313  -0.6213
C       -2.7937  -0.4306  0.6212
C       2.7935  0.4267  -0.6305
C       2.7937  -0.4256  0.6306
H       -1.3329  0.8315  -2.0266
H       -2.7827  1.4822  -0.3657
H       -3.6509  0.2391  -1.2490
H       -3.6509  -0.2380  1.2491
H       -2.7834  -1.4815  0.3657
H       -1.5991  0.7569  1.8181
H       -1.3333  -0.8320  2.0261
H       1.6548  -0.7347  -1.9418
H       1.4150  0.8668  -2.1096
H       3.6964  0.2304  -1.2036
H       2.7729  1.4740  -0.3837
H       2.7738  -1.4729  0.3838
H       3.6963  -0.2288  1.2037
H       1.4152  -0.8669  2.1093
H       1.6543  0.7348  1.9422
H       -1.5993  -0.7572  -1.8178
