27

Co      -0.0741  0.0061  -0.0389
Cl      0.0068  -2.3039  -0.2102
Cl      0.0064  2.2998  0.2144
N       -1.5105  0.1580  -1.3594
N       -1.5759  -0.1541  1.3961
N       1.5776  0.1683  -1.4039
N       1.6430  -0.1640  1.4407
C       -2.7745  0.3992  -0.6181
C       -2.8238  -0.4190  0.6549
C       2.8302  0.4012  -0.6175
C       2.8794  -0.4205  0.6544
H       -1.1040  0.9510  -1.8822
H       -2.8735  1.4432  -0.3685
H       -3.6112  0.1127  -1.2362
H       -3.6893  -0.0748  1.2114
H       -2.9518  -1.4670  0.4381
H       -1.3780  0.7588  1.8383
H       -1.1413  -0.9147  1.9431
H       1.3969  -0.7297  -1.8732
H       1.2254  0.9532  -1.9493
H       3.6894  0.1176  -1.2137
H       2.9253  1.4452  -0.3665
H       3.0039  -1.4686  0.4360
H       3.7629  -0.0792  1.1934
H       1.2623  -0.9164  2.0103
H       1.4618  0.7563  1.8736
H       -1.3083  -0.7305  -1.8380
