27

Co      0.0000  0.0488  0.0034
Cl      0.0002  -2.3179  -0.2229
Cl      -0.0001  2.2506  0.2163
N       -1.3798  0.1337  -1.3252
N       -1.4583  -0.1439  1.4021
N       1.4584  0.1336  -1.3988
N       1.3798  -0.1434  1.3285
C       -2.6721  0.3995  -0.6316
C       -2.7214  -0.4135  0.6479
C       2.7212  0.4142  -0.6514
C       2.6723  -0.3984  0.6285
H       -1.2115  0.8581  -1.9924
H       -2.7039  1.4542  -0.4106
H       -3.4995  0.1605  -1.2752
H       -3.5878  -0.1563  1.2327
H       -2.7537  -1.4682  0.4349
H       -1.5406  0.6965  1.9418
H       -1.2731  -0.9063  2.0243
H       1.5139  -0.7611  -1.8535
H       1.3099  0.8382  -2.0957
H       3.5878  0.1503  -1.2361
H       2.7531  1.4690  -0.4456
H       2.7049  -1.4531  0.4012
H       3.4994  -0.1653  1.2721
H       1.1749  -0.9252  1.9216
H       1.4422  0.6825  1.8973
H       -1.4158  -0.7461  -1.8098
