27

Co      0.0250  -0.0061  0.0389
Cl      0.0002  -2.2837  -0.2105
Cl      -0.0001  2.2878  0.2065
N       -1.4829  0.2169  -1.3792
N       -1.4960  -0.2211  1.4159
N       1.5205  0.1994  -1.3526
N       1.3765  -0.2032  1.2422
C       -2.7428  0.3835  -0.7121
C       -2.7430  -0.3771  0.6949
C       2.7920  0.4028  -0.7228
C       2.6939  -0.3665  0.6664
H       -1.4948  0.9217  -2.1069
H       -2.8824  1.4449  -0.5574
H       -3.4604  0.0712  -1.4771
H       -3.4751  -0.0971  1.4584
H       -2.8545  -1.4344  0.5223
H       -1.5702  0.6576  1.8980
H       -1.5566  -0.9394  2.1481
H       1.5804  -0.7076  -1.7729
H       1.5113  0.8661  -2.1230
H       3.5032  0.0738  -1.4863
H       2.9387  1.4679  -0.5750
H       2.8127  -1.4276  0.4711
H       3.3412  -0.1188  1.5462
H       1.3720  -0.9227  1.9582
H       1.4163  0.6663  1.7291
H       -1.5377  -0.6719  -1.8535
