27

Co      0.0000  -0.0061  0.0389
Cl      0.0002  -2.3266  -0.2233
Cl      -0.0001  2.3307  0.2193
N       -1.4364  0.1418  -1.3333
N       -1.4495  -0.1460  1.3701
N       1.5150  0.1417  -1.4069
N       1.3709  -0.1455  1.2965
C       -2.7307  0.4080  -0.6484
C       -2.7310  -0.4016  0.6312
C       2.7799  0.4227  -0.6681
C       2.6819  -0.3864  0.6117
H       -1.2353  0.8802  -1.9740
H       -2.7889  1.4648  -0.4455
H       -3.5619  0.1318  -1.2735
H       -3.5766  -0.1577  1.2549
H       -2.7609  -1.4542  0.4103
H       -1.5132  0.7074  1.8895
H       -1.2971  -0.8979  2.0153
H       1.5789  -0.7346  -1.8888
H       1.3337  0.8603  -2.0774
H       3.6502  0.1216  -1.2344
H       2.8381  1.4795  -0.4805
H       2.7121  -1.4392  0.3766
H       3.4882  -0.1666  1.2943
H       1.1989  -0.9168  1.9126
H       1.4148  0.6934  1.8450
H       -1.4807  -0.7216  -1.8450
