27

Co      -0.0741  -0.0488  -0.0034
Cl      0.0068  -2.2630  -0.2125
Cl      0.0064  2.3303  0.2194
N       -1.4709  0.1569  -1.3832
N       -1.4709  -0.1469  1.3797
N       1.5381  0.1672  -1.4277
N       1.5380  -0.1568  1.4244
C       -2.7338  0.4066  -0.6529
C       -2.7340  -0.4059  0.6563
C       2.7894  0.4086  -0.6523
C       2.7896  -0.4075  0.6558
H       -1.1022  0.9360  -1.9372
H       -2.7602  1.4662  -0.4501
H       -3.6807  0.1212  -1.1201
H       -3.6807  -0.1134  1.1236
H       -2.7608  -1.4655  0.4603
H       -1.4229  0.7524  1.8292
H       -1.1397  -0.8692  2.0074
H       1.5387  -0.6859  -1.9517
H       1.2236  0.9382  -2.0043
H       3.7589  0.1261  -1.0976
H       2.8120  1.4682  -0.4481
H       2.8129  -1.4671  0.4582
H       3.7589  -0.1178  1.1011
H       1.2608  -0.8709  2.0747
H       1.5113  0.7500  1.8645
H       -1.4501  -0.6888  -1.9165
