27

Co      0.0000  0.0000  0.0000
Cl      0.0002  -2.2341  -0.2067
Cl      -0.0001  2.2342  0.2068
N       -1.3910  0.1720  -1.2911
N       -1.3910  -0.1721  1.2910
N       1.3910  0.1682  -1.2910
N       1.3910  -0.1679  1.2911
C       -2.7453  0.3785  -0.6718
C       -2.7455  -0.3778  0.6718
C       2.7453  0.3785  -0.6719
C       2.7455  -0.3774  0.6720
H       -1.2847  0.9213  -1.9583
H       -2.7921  1.4505  -0.5422
H       -3.6259  0.0559  -1.2121
H       -3.6213  -0.0548  1.2167
H       -2.7928  -1.4498  0.5422
H       -1.5772  0.6378  1.8757
H       -1.2852  -0.9218  1.9578
H       1.5857  -0.6384  -1.8712
H       1.2849  0.9172  -1.9623
H       3.6258  0.0593  -1.2122
H       2.7885  1.4543  -0.5391
H       2.7893  -1.4532  0.5392
H       3.6258  -0.0577  1.2124
H       1.2851  -0.9173  1.9619
H       1.5852  0.6385  1.8716
H       -1.5820  -0.6382  -1.8753
