27

Co      0.0250  0.0488  0.0034
Cl      0.0002  -2.3122  -0.2118
Cl      -0.0001  2.2449  0.2051
N       -1.3593  0.1804  -1.3076
N       -1.4379  -0.1906  1.3845
N       1.3969  0.1629  -1.2810
N       1.3183  -0.1727  1.2108
C       -2.8044  0.3580  -0.6892
C       -2.8538  -0.3720  0.7055
C       2.8536  0.3772  -0.6999
C       2.8047  -0.3614  0.6770
H       -1.3491  0.9305  -1.9972
H       -2.7018  1.4271  -0.5116
H       -3.7003  0.1854  -1.2796
H       -3.7841  -0.1812  1.2416
H       -2.7516  -1.4440  0.5359
H       -1.5347  0.6164  1.9856
H       -1.4107  -0.9788  2.0292
H       1.4571  -0.7037  -1.7730
H       1.3656  0.8750  -2.0178
H       3.7431  0.1835  -1.2860
H       2.7610  1.4530  -0.5292
H       2.7127  -1.4372  0.4848
H       3.6547  -0.1985  1.3221
H       1.2305  -0.9620  1.8437
H       1.3853  0.6251  1.8167
H       -1.4144  -0.6660  -1.8536
