27

Co      0.0741  0.0488  0.0034
Cl      -0.0063  -2.2716  -0.2176
Cl      -0.0067  2.2043  0.2109
N       -1.4040  0.1421  -1.2712
N       -1.4826  -0.1524  1.3481
N       1.4155  0.1317  -1.3001
N       1.3369  -0.1415  1.2299
C       -2.7448  0.3984  -0.6446
C       -2.7941  -0.4124  0.6608
C       2.7384  0.4111  -0.6650
C       2.6894  -0.3953  0.6421
H       -1.3297  0.8274  -2.0205
H       -2.7260  1.4666  -0.4651
H       -3.6395  0.1575  -1.2033
H       -3.7234  -0.1533  1.1654
H       -2.7758  -1.4806  0.4893
H       -1.7291  0.6678  1.9080
H       -1.3913  -0.8757  2.0524
H       1.6183  -0.7355  -1.7841
H       1.3069  0.8051  -2.0569
H       3.6497  0.1421  -1.1868
H       2.7235  1.4794  -0.5027
H       2.6752  -1.4636  0.4583
H       3.5612  -0.1570  1.2229
H       1.1719  -0.8921  1.8828
H       1.5465  0.6569  1.8279
H       -1.6087  -0.7174  -1.7760
