27

Co      0.0000  -0.0488  -0.0034
Cl      0.0002  -2.2667  -0.2200
Cl      -0.0001  2.3341  0.2269
N       -1.5417  0.1301  -1.3849
N       -1.5417  -0.1201  1.3814
N       1.5417  0.1337  -1.3848
N       1.5417  -0.1233  1.3814
C       -2.7212  0.4037  -0.5988
C       -2.7215  -0.4030  0.6021
C       2.7213  0.4036  -0.5989
C       2.7214  -0.4025  0.6024
H       -1.3796  0.8870  -2.0230
H       -2.7388  1.4574  -0.3572
H       -3.6275  0.1751  -1.1449
H       -3.6275  -0.1673  1.1484
H       -2.7394  -1.4539  0.3674
H       -1.6131  0.7744  1.8309
H       -1.4170  -0.8202  2.0932
H       1.6365  -0.7110  -1.9215
H       1.3798  0.8905  -2.0195
H       3.6275  0.1710  -1.1451
H       2.7426  1.4509  -0.3616
H       2.7435  -1.4498  0.3718
H       3.6274  -0.1627  1.1486
H       1.4170  -0.8232  2.0898
H       1.6091  0.7751  1.8344
H       -1.6403  -0.7108  -1.9182
