27

Co      0.0000  0.0488  0.0034
Cl      0.0002  -2.3159  -0.2193
Cl      -0.0001  2.2487  0.2126
N       -1.4517  0.1375  -1.2873
N       -1.4517  -0.1478  1.2906
N       1.4517  0.1375  -1.2872
N       1.4517  -0.1473  1.2906
C       -2.7712  0.4076  -0.6367
C       -2.7714  -0.4069  0.6333
C       2.7712  0.4075  -0.6368
C       2.7714  -0.4064  0.6335
H       -1.2879  0.8413  -1.9843
H       -2.8341  1.4623  -0.4299
H       -3.5798  0.1318  -1.2957
H       -3.5798  -0.1374  1.2925
H       -2.8347  -1.4615  0.4198
H       -1.5143  0.6914  1.8358
H       -1.2513  -0.9092  1.9131
H       1.4876  -0.7559  -1.7476
H       1.2881  0.8410  -1.9845
H       3.5798  0.1314  -1.2958
H       2.8342  1.4623  -0.4306
H       2.8350  -1.4612  0.4205
H       3.5797  -0.1366  1.2926
H       1.2512  -0.9084  1.9135
H       1.5140  0.6921  1.8355
H       -1.4876  -0.7557  -1.7480
