27

Co      0.0000  0.0000  0.0000
Cl      0.0002  -2.2733  -0.2121
Cl      -0.0001  2.2734  0.2122
N       -1.3326  0.1656  -1.3134
N       -1.3326  -0.1657  1.3133
N       1.3326  0.1618  -1.3133
N       1.3325  -0.1615  1.3133
C       -2.7463  0.4039  -0.6971
C       -2.7465  -0.4032  0.6971
C       2.7463  0.4038  -0.6973
C       2.7465  -0.4027  0.6974
H       -1.1964  0.9047  -1.9805
H       -2.7438  1.4731  -0.5489
H       -3.6079  0.1317  -1.2845
H       -3.6033  -0.1306  1.2892
H       -2.7444  -1.4752  0.5489
H       -1.5188  0.6516  1.8877
H       -1.1968  -0.9052  1.9801
H       1.5273  -0.6522  -1.8832
H       1.1965  0.9006  -1.9845
H       3.6079  0.1350  -1.2847
H       2.7401  1.4796  -0.5458
H       2.7409  -1.4785  0.5458
H       3.6078  -0.1335  1.2848
H       1.1967  -0.9007  1.9842
H       1.5268  0.6523  1.8836
H       -1.5236  -0.6519  -1.8874
