27

Co      -0.0741  0.0061  -0.0389
Cl      0.0068  -2.2915  -0.2139
Cl      0.0064  2.2875  0.2181
N       -1.4559  0.1491  -1.3425
N       -1.4428  -0.1451  1.3056
N       1.4445  0.1594  -1.3134
N       1.5885  -0.1550  1.4239
C       -2.7386  0.4062  -0.6412
C       -2.7388  -0.4112  0.6584
C       2.7451  0.3934  -0.6210
C       2.8435  -0.4275  0.6775
H       -1.1227  0.8918  -1.9528
H       -2.7626  1.4637  -0.4328
H       -3.6666  0.1266  -1.1387
H       -3.6518  -0.0985  1.1576
H       -2.7919  -1.4728  0.4680
H       -1.3937  0.7418  1.7791
H       -1.0617  -0.8752  1.9105
H       1.4171  -0.7126  -1.8141
H       1.1459  0.9136  -1.9168
H       3.6564  0.1413  -1.1554
H       2.7654  1.4510  -0.3964
H       2.8930  -1.4891  0.5003
H       3.8183  -0.0931  1.0959
H       1.2810  -0.8572  2.0809
H       1.5802  0.7541  1.8586
H       -1.4267  -0.7282  -1.8230
