27

Co      -0.0490  0.0061  -0.0389
Cl      0.0068  -2.2987  -0.2139
Cl      0.0064  2.2946  0.2181
N       -1.5160  0.1562  -1.4636
N       -1.5029  -0.1522  1.4267
N       1.4637  0.1528  -1.3343
N       1.6076  -0.1485  1.4448
C       -2.7293  0.4060  -0.6325
C       -2.7295  -0.4110  0.6496
C       2.7358  0.3978  -0.6032
C       2.8342  -0.4319  0.6597
H       -1.1381  0.9450  -1.9960
H       -2.8023  1.4500  -0.3857
H       -3.6204  0.1245  -1.1800
H       -3.6102  -0.0965  1.1945
H       -2.8316  -1.4590  0.4208
H       -1.3094  0.7522  1.8898
H       -1.0772  -0.9283  1.9538
H       1.2691  -0.7458  -1.8040
H       1.0794  0.9349  -1.8735
H       3.5647  0.1438  -1.2423
H       2.8188  1.4418  -0.3356
H       2.9464  -1.4800  0.4395
H       3.7267  -0.0956  1.1827
H       1.2145  -0.8785  2.0376
H       1.4323  0.7873  1.8486
H       -1.3379  -0.7387  -1.9336
