27

Co      0.0106  0.0749  -0.0073
Cl      -1.0564  1.5631  -1.1844
Cl      1.1226  1.3823  1.3286
C       2.6018  -0.6860  -0.8312
C       2.0848  -1.8922  -0.1414
C       -2.4685  -1.2541  -0.4336
C       -2.3715  -1.1256  1.0369
N       1.5121  0.0477  -1.3439
N       1.0434  -1.5401  0.9235
N       -1.1085  -1.4017  -1.0534
N       -1.4935  -0.0469  1.3956
H       2.9567  -2.3092  0.3468
H       1.6634  -2.6578  -0.7778
H       -2.9704  -0.4330  -0.9137
H       -3.0452  -2.1527  -0.5994
H       1.7603  1.0082  -1.5022
H       1.1787  -0.3079  -2.2253
H       -1.9577  0.8412  1.3347
H       -1.1503  -0.1238  2.3293
H       -1.9375  -2.0479  1.4081
H       -3.3559  -1.0419  1.4798
H       0.5390  -2.3767  1.1660
H       1.4793  -1.2064  1.7632
H       3.3921  -0.9009  -1.5561
H       3.0359  -0.0779  -0.0425
H       -0.8052  -2.3540  -0.9939
H       -1.1711  -1.1639  -2.0268
