27

Co      0.0258  0.0325  -0.0149
Cl      -1.0783  1.5865  -1.1943
Cl      1.1415  1.4037  1.3403
C       2.6183  -0.7012  -0.8078
C       2.1328  -1.9494  -0.0934
C       -2.5072  -1.2779  -0.4508
C       -2.3748  -1.1463  1.0623
N       1.4500  0.0957  -1.2670
N       1.1069  -1.5083  0.8923
N       -1.1593  -1.4191  -1.1262
N       -1.5110  0.0187  1.3981
H       2.9523  -2.4583  0.3862
H       1.6689  -2.6406  -0.7813
H       -2.9575  -0.3810  -0.8471
H       -3.1563  -2.1128  -0.6926
H       1.6998  1.0623  -1.3754
H       1.1311  -0.2109  -2.1678
H       -1.9925  0.8945  1.3004
H       -1.1616  -0.0166  2.3346
H       -1.9201  -2.0295  1.4886
H       -3.3653  -1.0514  1.4925
H       0.5656  -2.2849  1.2179
H       1.5442  -1.0891  1.6899
H       3.2609  -0.9424  -1.6391
H       3.1742  -0.0821  -0.1229
H       -0.8563  -2.3738  -1.1377
H       -1.2441  -1.1105  -2.0782
