27

Co      0.0728  0.0429  -0.0023
Cl      -1.0894  1.6237  -1.2246
Cl      1.1396  1.4229  1.3521
C       2.5998  -0.6798  -0.8173
C       2.1052  -1.9526  -0.0811
C       -2.5076  -1.3346  -0.4629
C       -2.4314  -1.1461  1.0740
N       1.4100  0.0771  -1.2887
N       1.0255  -1.5125  0.8561
N       -1.1360  -1.4235  -1.0933
N       -1.4694  -0.0470  1.4091
H       3.0058  -2.4542  0.2875
H       1.5876  -2.6261  -0.7482
H       -2.8964  -0.4539  -0.9733
H       -3.2197  -2.1728  -0.5805
H       1.7210  1.0178  -1.5792
H       1.2542  -0.3703  -2.1976
H       -1.9861  0.8218  1.3990
H       -1.2017  -0.1535  2.3785
H       -2.0489  -2.0123  1.5984
H       -3.4593  -1.0014  1.4018
H       0.4850  -2.3145  1.1336
H       1.5774  -1.3028  1.7025
H       3.3726  -1.0283  -1.5056
H       3.0404  0.0381  -0.1305
H       -0.9446  -2.4200  -1.1415
H       -1.2805  -1.1782  -2.0657
