27

Co      -0.0056  0.0652  0.0476
Cl      -1.0767  1.6011  -1.2186
Cl      1.0954  1.3280  1.2878
C       2.6111  -0.6973  -0.7756
C       2.0702  -1.8659  -0.0898
C       -2.4568  -1.3099  -0.4797
C       -2.3610  -1.1134  1.0388
N       1.4988  0.0520  -1.3403
N       1.1190  -1.4926  0.8504
N       -1.1049  -1.3696  -1.0865
N       -1.4371  -0.0034  1.4172
H       2.9741  -2.4760  0.1624
H       1.4926  -2.4457  -0.8122
H       -2.8750  -0.4512  -0.9929
H       -3.1476  -2.1642  -0.5717
H       1.8309  0.9828  -1.6585
H       1.3994  -0.4406  -2.2513
H       -1.9701  0.8676  1.5086
H       -1.1221  -0.1880  2.3615
H       -1.9375  -1.9752  1.5506
H       -3.3923  -1.0147  1.3821
H       0.6716  -2.3320  1.1793
H       1.6949  -1.2408  1.6621
H       3.3601  -1.2140  -1.4271
H       3.1188  0.0191  -0.1498
H       -0.8757  -2.3506  -1.0859
H       -1.2138  -1.1428  -2.0605
