27

Co      0.0439  -0.0131  0.0301
Cl      -1.0894  1.6271  -1.2300
Cl      1.0969  1.3704  1.2957
C       2.6046  -0.6741  -0.8610
C       2.0935  -1.9035  -0.0521
C       -2.4611  -1.2886  -0.4611
C       -2.3840  -1.1259  1.0691
N       1.4339  0.1255  -1.2960
N       0.9687  -1.4985  0.8565
N       -1.0603  -1.3060  -1.0057
N       -1.4125  -0.0316  1.3470
H       2.9877  -2.3691  0.3525
H       1.6045  -2.6221  -0.6983
H       -2.8758  -0.4308  -0.9735
H       -3.0998  -2.1588  -0.6172
H       1.7239  1.0802  -1.4402
H       1.3132  -0.2026  -2.2537
H       -1.9232  0.8349  1.2719
H       -1.1667  -0.0664  2.3224
H       -1.9798  -1.9933  1.5791
H       -3.3907  -0.9731  1.4397
H       0.4595  -2.3289  1.1143
H       1.4959  -1.2923  1.7218
H       3.3025  -1.1141  -1.5812
H       3.1338  0.0329  -0.2424
H       -0.8402  -2.2884  -1.0448
H       -1.1563  -1.0446  -1.9741
