27

Co      -0.0545  -0.0632  -0.0322
Cl      -1.0847  1.6188  -1.1993
Cl      1.2121  1.5152  1.4299
C       2.6822  -0.7006  -0.7782
C       2.1215  -1.9454  -0.1423
C       -2.5303  -1.2789  -0.4485
C       -2.3903  -1.1664  1.0539
N       1.4763  0.0134  -1.2944
N       1.0831  -1.4222  0.8036
N       -1.1290  -1.2920  -0.9796
N       -1.4563  -0.0432  1.2659
H       2.8642  -2.5291  0.3919
H       1.6490  -2.5906  -0.8717
H       -3.0295  -0.4151  -0.8532
H       -3.0579  -2.1663  -0.7590
H       1.6558  1.0047  -1.3594
H       1.2518  -0.2911  -2.2212
H       -1.9136  0.8439  1.1110
H       -1.1004  0.0023  2.2052
H       -1.9545  -2.0637  1.4745
H       -3.3336  -0.9985  1.5433
H       0.6282  -2.1852  1.2916
H       1.5577  -0.8702  1.5146
H       3.3951  -0.8998  -1.5644
H       3.1505  -0.0658  -0.0395
H       -0.7619  -2.2282  -0.9235
H       -1.1489  -1.0340  -1.9484
