27

Co      -0.0086  -0.0597  -0.0185
Cl      -1.1163  1.6499  -1.2225
Cl      1.2317  1.5578  1.4477
C       2.7382  -0.7419  -0.7894
C       2.1780  -1.9720  -0.0892
C       -2.6107  -1.3233  -0.4457
C       -2.4569  -1.2287  1.0766
N       1.5306  0.0739  -1.3691
N       1.1073  -1.4924  0.7958
N       -1.2151  -1.3617  -1.0104
N       -1.5429  -0.0188  1.3127
H       2.7936  -2.6149  0.5775
H       1.7882  -2.5861  -0.9088
H       -3.1132  -0.3865  -0.7010
H       -3.1200  -2.1609  -0.9684
H       1.6708  1.0791  -1.3221
H       1.1248  -0.1489  -2.2622
H       -1.9469  0.8811  1.1001
H       -1.1131  0.0475  2.2270
H       -2.0548  -2.1292  1.5112
H       -3.3807  -0.9928  1.5850
H       0.4724  -2.2181  1.0834
H       1.3576  -0.9171  1.6140
H       3.2121  -0.9813  -1.7522
H       3.4352  -0.1508  -0.1901
H       -0.7261  -2.2525  -0.9706
H       -1.1715  -0.9991  -1.9482
