27

Co      -0.0517  -0.0366  -0.0271
Cl      -1.0758  1.5873  -1.1851
Cl      1.2106  1.5188  1.4118
C       2.6775  -0.7446  -0.8426
C       2.1955  -1.9607  -0.0877
C       -2.5776  -1.2919  -0.4497
C       -2.3796  -1.1622  1.0434
N       1.4806  0.0804  -1.2188
N       1.0752  -1.4816  0.7932
N       -1.1897  -1.3132  -1.0110
N       -1.4463  -0.0254  1.2360
H       2.9887  -2.3925  0.5237
H       1.8234  -2.7402  -0.7478
H       -3.0987  -0.4478  -0.8620
H       -3.1068  -2.1944  -0.7201
H       1.7184  1.0683  -1.1601
H       1.2199  -0.0787  -2.1785
H       -1.9143  0.8536  1.0946
H       -1.0840  0.0143  2.1705
H       -1.9177  -2.0512  1.4538
H       -3.3075  -0.9977  1.5719
H       0.5929  -2.2689  1.1840
H       1.4858  -0.9796  1.5681
H       3.2444  -1.0066  -1.7268
H       3.3054  -0.1359  -0.2027
H       -0.8202  -2.2470  -0.9616
H       -1.2224  -1.0528  -1.9823
