27

Co      0.0693  0.0219  0.0122
Cl      -1.0646  1.5763  -1.2136
Cl      1.1113  1.3793  1.3203
C       2.5647  -0.7010  -0.7637
C       2.0471  -1.8472  -0.0842
C       -2.4712  -1.3449  -0.4283
C       -2.4648  -1.1247  1.0723
N       1.4631  0.0507  -1.3203
N       1.0508  -1.4221  0.7723
N       -1.1120  -1.2876  -1.0535
N       -1.4739  -0.0739  1.4171
H       2.8426  -2.3701  0.4127
H       1.6241  -2.5218  -0.8129
H       -3.0348  -0.5488  -0.8765
H       -2.9631  -2.2745  -0.6663
H       1.7239  1.0012  -1.5340
H       1.1554  -0.3603  -2.1926
H       -1.8760  0.8471  1.3775
H       -1.1334  -0.1928  2.3516
H       -2.2133  -2.0299  1.6330
H       -3.4808  -0.8365  1.3669
H       0.4543  -2.1949  1.0118
H       1.4415  -1.0679  1.6275
H       3.1947  -1.0925  -1.5503
H       3.1618  -0.0641  -0.1386
H       -0.7544  -2.2148  -1.1841
H       -1.2298  -0.8754  -1.9688
