27

Co      -0.0386  -0.0499  -0.0542
Cl      -1.1158  1.6739  -1.2435
Cl      1.2082  1.5136  1.4260
C       2.6714  -0.7173  -0.7783
C       2.1578  -1.9862  -0.1267
C       -2.5056  -1.3030  -0.4229
C       -2.4659  -1.1790  1.0906
N       1.4913  0.0334  -1.3141
N       1.1325  -1.5257  0.8631
N       -1.1025  -1.2653  -0.9728
N       -1.5123  -0.0734  1.3499
H       2.9560  -2.5353  0.3597
H       1.6913  -2.6429  -0.8435
H       -3.0208  -0.4513  -0.8396
H       -3.0020  -2.2026  -0.7583
H       1.7014  1.0195  -1.3433
H       1.2849  -0.2336  -2.2585
H       -1.9536  0.8238  1.2451
H       -1.1318  -0.0875  2.2828
H       -2.1077  -2.0788  1.5696
H       -3.4493  -0.9670  1.4790
H       0.6847  -2.3097  1.3188
H       1.5950  -0.9856  1.5892
H       3.3914  -0.9192  -1.5581
H       3.1404  -0.0846  -0.0407
H       -0.7074  -2.1911  -0.9526
H       -1.1616  -0.9850  -1.9333
