27

Co      -0.0067  -0.0359  -0.0211
Cl      -1.0926  1.6163  -1.2156
Cl      1.1614  1.4544  1.3731
C       2.6569  -0.7040  -0.8085
C       2.1078  -1.9065  -0.1076
C       -2.5170  -1.2782  -0.4130
C       -2.4435  -1.1781  1.0703
N       1.5530  0.0914  -1.4176
N       1.0787  -1.5405  0.9154
N       -1.1107  -1.2408  -0.9412
N       -1.5112  -0.0633  1.3216
H       2.8228  -2.4446  0.4985
H       1.7238  -2.5987  -0.8507
H       -3.1200  -0.4478  -0.7513
H       -2.8930  -2.2103  -0.8681
H       1.7001  1.0933  -1.3276
H       1.1492  -0.0988  -2.3243
H       -1.8856  0.8557  1.1278
H       -1.0865  -0.0244  2.2298
H       -2.0885  -2.1145  1.4796
H       -3.3785  -0.9305  1.5529
H       0.5207  -2.3286  1.1773
H       1.3541  -0.9967  1.7355
H       3.2518  -0.9241  -1.6875
H       3.2637  -0.1433  -0.1201
H       -0.6036  -2.1178  -0.9093
H       -1.0805  -0.8699  -1.8737
