27

Co      -0.0060  0.0710  0.0330
Cl      -1.0737  1.5807  -1.2050
Cl      1.1425  1.4052  1.3381
C       2.6490  -0.7449  -0.7953
C       2.1213  -1.8710  -0.0909
C       -2.5315  -1.3310  -0.4576
C       -2.4038  -1.1445  1.0336
N       1.5599  0.0504  -1.3515
N       1.1253  -1.5155  0.8123
N       -1.1912  -1.4045  -1.0931
N       -1.4933  -0.0220  1.4014
H       2.9374  -2.4110  0.3684
H       1.6888  -2.5349  -0.8233
H       -3.0381  -0.4886  -0.8910
H       -3.1231  -2.2128  -0.6619
H       1.8509  0.9995  -1.5342
H       1.2663  -0.3291  -2.2338
H       -1.9567  0.8716  1.4283
H       -1.1080  -0.1746  2.3193
H       -2.0075  -2.0369  1.4992
H       -3.3932  -0.9895  1.4410
H       0.5814  -2.3354  1.0271
H       1.5111  -1.1753  1.6782
H       3.2536  -1.1876  -1.5873
H       3.2919  -0.1100  -0.1976
H       -0.8426  -2.3414  -1.0850
H       -1.2531  -1.1086  -2.0470
