27

Co      -0.0633  -0.0070  -0.0097
Cl      -1.0629  1.5543  -1.1758
Cl      1.1908  1.4763  1.3901
C       2.7076  -0.7296  -0.8358
C       2.1597  -1.9330  -0.1005
C       -2.5946  -1.3159  -0.4533
C       -2.4024  -1.1594  1.0344
N       1.5386  0.0734  -1.3089
N       1.0962  -1.4665  0.8449
N       -1.1942  -1.2362  -0.9776
N       -1.4345  -0.0495  1.2228
H       2.9374  -2.4579  0.4393
H       1.7139  -2.6386  -0.7891
H       -3.1841  -0.5219  -0.8880
H       -3.0374  -2.2693  -0.7135
H       1.7692  1.0583  -1.2953
H       1.3036  -0.1468  -2.2568
H       -1.8960  0.8404  1.1309
H       -1.0525  -0.0507  2.1464
H       -1.9640  -2.0586  1.4528
H       -3.3218  -0.9613  1.5715
H       0.6399  -2.2628  1.2563
H       1.5401  -0.9610  1.5983
H       3.3353  -1.0320  -1.6626
H       3.2929  -0.1100  -0.1746
H       -0.7836  -2.1537  -0.9459
H       -1.2143  -0.9477  -1.9372
