27

Co      0.0498  -0.0109  0.0283
Cl      -1.1145  1.6406  -1.2363
Cl      1.1087  1.3587  1.3043
C       2.6437  -0.6763  -0.8148
C       2.0827  -1.8993  -0.0977
C       -2.5025  -1.2834  -0.4425
C       -2.4005  -1.1454  1.0694
N       1.5105  0.1069  -1.3581
N       1.1065  -1.4906  0.9592
N       -1.1331  -1.3353  -1.0749
N       -1.5069  -0.0040  1.3813
H       2.8821  -2.5053  0.3059
H       1.5365  -2.5138  -0.8140
H       -2.9951  -0.4169  -0.8479
H       -3.0764  -2.1553  -0.7060
H       1.7260  1.0803  -1.4535
H       1.2235  -0.2161  -2.2633
H       -1.9668  0.8801  1.2257
H       -1.1978  -0.0004  2.3349
H       -1.9757  -2.0362  1.5132
H       -3.3881  -1.0120  1.4913
H       0.5823  -2.2842  1.2732
H       1.5679  -1.0936  1.7551
H       3.3215  -0.9917  -1.5968
H       3.1868  -0.0496  -0.1339
H       -0.8231  -2.2861  -1.1691
H       -1.2013  -0.9351  -1.9948
