27

Co      -0.0379  -0.0765  -0.0564
Cl      -1.0800  1.5881  -1.1887
Cl      1.2079  1.5104  1.4174
C       2.7348  -0.6944  -0.8299
C       2.1880  -2.0425  -0.0697
C       -2.5756  -1.3145  -0.4572
C       -2.4401  -1.1911  1.0990
N       1.4316  0.1286  -1.2815
N       1.0686  -1.4408  0.8630
N       -1.1473  -1.2013  -0.9883
N       -1.4656  -0.0100  1.2619
H       2.8828  -2.6640  0.4987
H       1.6819  -2.6714  -0.8007
H       -3.0890  -0.4278  -0.8096
H       -3.0619  -2.1977  -0.8659
H       1.6009  1.1344  -1.2036
H       1.2241  -0.0481  -2.2550
H       -1.9315  0.8713  1.0838
H       -1.0871  0.0745  2.1958
H       -2.0196  -2.0617  1.5819
H       -3.3789  -0.9599  1.5818
H       0.5578  -2.1570  1.3815
H       1.5326  -0.8436  1.5604
H       3.3265  -0.8766  -1.7242
H       3.2924  -0.0467  -0.1701
H       -0.7252  -2.1169  -1.0171
H       -1.1823  -0.8528  -1.9304
