27

Co      0.0498  -0.0044  0.0248
Cl      -1.1055  1.6466  -1.2393
Cl      1.1027  1.3587  1.3073
C       2.5387  -0.6818  -0.7802
C       2.0195  -1.8050  -0.1325
C       -2.4381  -1.2566  -0.4159
C       -2.3790  -1.1099  1.0443
N       1.5255  0.0467  -1.3553
N       1.1033  -1.5141  0.9274
N       -1.0934  -1.3572  -1.0570
N       -1.4931  -0.0496  1.3927
H       2.9138  -2.2902  0.2462
H       1.5489  -2.4998  -0.8095
H       -2.9629  -0.4478  -0.8850
H       -2.9928  -2.1670  -0.5885
H       1.7760  1.0055  -1.5022
H       1.2313  -0.3148  -2.2454
H       -1.9246  0.8498  1.2683
H       -1.1942  -0.0944  2.3449
H       -1.9952  -2.0274  1.4697
H       -3.3842  -0.9836  1.4262
H       0.6318  -2.3648  1.1817
H       1.5466  -1.1635  1.7553
H       3.2933  -1.0366  -1.4828
H       3.0416  -0.0769  -0.0545
H       -0.8115  -2.3154  -1.1182
H       -1.1822  -1.0066  -1.9913
