27

Co      0.0311  0.0696  -0.0092
Cl      -1.0511  1.5585  -1.2040
Cl      1.1193  1.3770  1.3246
C       2.6128  -0.6828  -0.8179
C       2.1040  -1.9478  -0.0773
C       -2.4650  -1.3650  -0.4578
C       -2.4536  -1.1042  1.0829
N       1.4272  0.0800  -1.2918
N       1.0425  -1.4777  0.8597
N       -1.1092  -1.3252  -1.1257
N       -1.4515  -0.0496  1.4660
H       2.9970  -2.4609  0.2900
H       1.5689  -2.6152  -0.7361
H       -2.9571  -0.5664  -1.0083
H       -3.0768  -2.2748  -0.5275
H       1.7456  1.0172  -1.5703
H       1.2877  -0.3609  -2.2100
H       -1.9396  0.8453  1.5698
H       -1.1291  -0.2613  2.4093
H       -2.1523  -1.9737  1.6716
H       -3.5052  -0.8935  1.3346
H       0.5337  -2.2742  1.1978
H       1.6135  -1.2118  1.6676
H       3.3840  -1.0408  -1.5073
H       3.0597  0.0279  -0.1325
H       -0.8623  -2.2981  -1.2685
H       -1.3040  -0.9899  -2.0645
