27

Co      -0.0018  -0.0262  -0.0053
Cl      -1.1149  1.6619  -1.2318
Cl      1.1803  1.4701  1.3889
C       2.6591  -0.6998  -0.7881
C       2.1295  -1.9523  -0.1241
C       -2.5446  -1.2923  -0.4515
C       -2.3947  -1.1678  1.0515
N       1.4777  0.0462  -1.3036
N       1.1131  -1.4991  0.8764
N       -1.1550  -1.3652  -1.0206
N       -1.4705  -0.0380  1.3028
H       2.9166  -2.5266  0.3466
H       1.6403  -2.5947  -0.8469
H       -3.0174  -0.4134  -0.8597
H       -3.1225  -2.1590  -0.7343
H       1.6847  1.0267  -1.4015
H       1.2105  -0.2744  -2.2127
H       -1.9329  0.8469  1.1664
H       -1.1268  -0.0250  2.2463
H       -1.9587  -2.0655  1.4702
H       -3.3478  -1.0145  1.5312
H       0.6206  -2.2811  1.2650
H       1.5764  -1.0361  1.6392
H       3.3569  -0.9262  -1.5795
H       3.1560  -0.0682  -0.0692
H       -0.8202  -2.3114  -0.9781
H       -1.1831  -1.0966  -1.9858
