27

Co      0.0513  0.0341  0.0126
Cl      -1.0897  1.5968  -1.2130
Cl      1.1370  1.4120  1.3429
C       2.6800  -0.7057  -0.8417
C       2.1101  -1.9068  -0.0933
C       -2.5382  -1.3116  -0.4364
C       -2.4609  -1.1791  1.0758
N       1.5480  0.0853  -1.3946
N       1.0448  -1.4999  0.8765
N       -1.1580  -1.3499  -1.0381
N       -1.5478  -0.0448  1.3994
H       2.8947  -2.4464  0.4072
H       1.6498  -2.5814  -0.8005
H       -3.0286  -0.4476  -0.8503
H       -3.0999  -2.1871  -0.7189
H       1.7892  1.0504  -1.5284
H       1.2488  -0.2611  -2.2874
H       -2.0112  0.8364  1.2790
H       -1.2293  -0.0742  2.3493
H       -2.0642  -2.0751  1.5319
H       -3.4517  -1.0235  1.4802
H       0.4571  -2.2976  1.0836
H       1.4435  -1.1782  1.7438
H       3.3492  -1.0494  -1.6188
H       3.2353  -0.0648  -0.1783
H       -0.8242  -2.2934  -1.0871
H       -1.2206  -1.0042  -1.9781
