27

Co      -0.0194  0.0098  0.0141
Cl      -1.1080  1.6495  -1.2360
Cl      1.1789  1.4712  1.3860
C       2.7844  -0.6922  -0.8120
C       2.1792  -2.0446  -0.1049
C       -2.6157  -1.3639  -0.4846
C       -2.4619  -1.2084  1.0603
N       1.4803  0.0552  -1.3736
N       1.0592  -1.4817  0.8547
N       -1.1534  -1.2714  -0.9110
N       -1.4163  -0.0830  1.2559
H       2.8434  -2.7483  0.4280
H       1.6496  -2.6027  -0.8935
H       -3.1137  -0.4902  -0.8852
H       -3.0936  -2.2585  -0.8717
H       1.6423  1.0439  -1.5145
H       1.2259  -0.3199  -2.2704
H       -1.8732  0.8146  1.1923
H       -1.0224  -0.1059  2.1814
H       -2.0869  -2.1108  1.5304
H       -3.3749  -0.9262  1.5753
H       0.4896  -2.2149  1.2443
H       1.5215  -1.0335  1.6273
H       3.4650  -0.8840  -1.6343
H       3.2612  -0.0149  -0.1135
H       -0.7140  -2.1786  -0.8034
H       -1.1065  -1.0353  -1.8881
