27

Co      0.0492  0.0169  0.0350
Cl      -1.0765  1.5942  -1.2206
Cl      1.0771  1.3255  1.2740
C       2.5500  -0.6904  -0.8284
C       2.0342  -1.8016  -0.0956
C       -2.4357  -1.2809  -0.4249
C       -2.4041  -1.0997  1.0525
N       1.5060  0.0618  -1.3036
N       1.0273  -1.4585  0.8466
N       -1.0653  -1.2546  -1.0034
N       -1.4490  -0.0766  1.3630
H       3.0010  -2.2110  0.2525
H       1.5557  -2.5559  -0.7055
H       -2.9497  -0.5171  -0.9963
H       -2.9913  -2.2271  -0.4822
H       1.8412  0.9994  -1.5110
H       1.3826  -0.3180  -2.2427
H       -1.9398  0.8017  1.3043
H       -1.2262  -0.1514  2.3425
H       -2.0350  -1.9901  1.5518
H       -3.4331  -0.9569  1.3799
H       0.5900  -2.3284  1.1215
H       1.5805  -1.2434  1.6899
H       3.3308  -1.1857  -1.4637
H       3.0456  -0.0166  -0.1586
H       -0.8546  -2.2385  -1.1031
H       -1.2128  -0.9540  -1.9552
