27

Co      0.0032  0.0336  0.0131
Cl      -1.0871  1.6274  -1.2213
Cl      1.1128  1.3725  1.3088
C       2.6104  -0.6826  -0.8173
C       2.1243  -1.9558  -0.0812
C       -2.4781  -1.2825  -0.4771
C       -2.3542  -1.1352  1.0487
N       1.4154  0.0857  -1.2646
N       1.0538  -1.5310  0.8730
N       -1.0772  -1.3494  -1.0065
N       -1.4025  -0.0241  1.3319
H       3.0319  -2.4609  0.2721
H       1.6037  -2.6334  -0.7464
H       -2.8666  -0.4020  -0.9840
H       -3.1530  -2.1307  -0.6277
H       1.7161  1.0360  -1.4712
H       1.2978  -0.2939  -2.2062
H       -1.9412  0.8368  1.3275
H       -1.1066  -0.0999  2.2879
H       -1.9021  -2.0049  1.5166
H       -3.3472  -1.0256  1.4672
H       0.5951  -2.3531  1.2313
H       1.6298  -1.2566  1.6764
H       3.3608  -1.0347  -1.5252
H       3.0722  0.0232  -0.1401
H       -0.8417  -2.3287  -0.9178
H       -1.1475  -1.2029  -2.0118
