27

Co      0.0031  0.0023  -0.0110
Cl      -1.0855  1.5880  -1.2055
Cl      1.1974  1.4955  1.4038
C       2.7002  -0.7407  -0.8162
C       2.1579  -1.9331  -0.1155
C       -2.6022  -1.3496  -0.4224
C       -2.4735  -1.1687  1.0553
N       1.5560  0.0573  -1.3355
N       1.1108  -1.4773  0.8478
N       -1.2341  -1.3175  -1.0518
N       -1.5166  -0.0709  1.3262
H       2.8456  -2.4527  0.5590
H       1.7923  -2.6515  -0.8421
H       -3.2569  -0.5613  -0.7850
H       -2.9885  -2.3096  -0.7754
H       1.7274  1.0507  -1.3115
H       1.0893  -0.1651  -2.2115
H       -1.8789  0.8587  1.1864
H       -1.0871  -0.0938  2.2330
H       -2.1457  -2.1023  1.4880
H       -3.4023  -0.8872  1.5346
H       0.5125  -2.2325  1.1241
H       1.3915  -0.9247  1.6594
H       3.2501  -0.9261  -1.7433
H       3.3465  -0.1938  -0.1367
H       -0.7479  -2.2038  -1.1218
H       -1.2616  -0.8683  -1.9574
