27

Co      0.0060  -0.0069  -0.0014
Cl      -1.0825  1.5914  -1.2020
Cl      1.1387  1.3957  1.3417
C       2.6457  -0.6767  -0.8039
C       2.0824  -1.9064  -0.1067
C       -2.4989  -1.2869  -0.4476
C       -2.3883  -1.1352  1.0647
N       1.5058  0.0956  -1.3608
N       1.1117  -1.4801  0.9471
N       -1.1416  -1.3306  -1.0998
N       -1.4975  0.0062  1.3818
H       2.8779  -2.5194  0.3020
H       1.5355  -2.5151  -0.8258
H       -3.0090  -0.4313  -0.8573
H       -3.0681  -2.1662  -0.6927
H       1.7202  1.0709  -1.4478
H       1.2435  -0.2261  -2.2734
H       -1.9594  0.8942  1.2759
H       -1.1477  -0.0228  2.3181
H       -1.9589  -2.0225  1.5093
H       -3.3756  -1.0062  1.4873
H       0.6209  -2.2695  1.3198
H       1.5833  -1.0268  1.7082
H       3.3441  -0.9687  -1.5762
H       3.1623  -0.0462  -0.1038
H       -0.8143  -2.2766  -1.1811
H       -1.2215  -0.9457  -2.0241
