27

Co      -0.0213  -0.0261  0.0151
Cl      -1.1208  1.6789  -1.2488
Cl      1.1918  1.4951  1.4007
C       2.7056  -0.7080  -0.7660
C       2.1542  -1.9905  -0.0868
C       -2.6070  -1.3657  -0.4825
C       -2.4341  -1.1937  1.0461
N       1.4671  0.0576  -1.3497
N       1.1146  -1.5098  0.8306
N       -1.1695  -1.2888  -0.9320
N       -1.3908  -0.0728  1.2309
H       2.8707  -2.6848  0.3786
H       1.6433  -2.5399  -0.8948
H       -3.1051  -0.4910  -0.8752
H       -3.1065  -2.2546  -0.8523
H       1.6633  1.0402  -1.4654
H       1.2443  -0.2949  -2.2605
H       -1.8367  0.8304  1.1813
H       -0.9864  -0.1096  2.1507
H       -2.0695  -2.0885  1.5383
H       -3.3512  -0.8976  1.5472
H       0.5825  -2.2669  1.2144
H       1.5553  -1.0442  1.6076
H       3.3251  -1.0140  -1.5936
H       3.2688  -0.0343  -0.1387
H       -0.7389  -2.1985  -0.8283
H       -1.1338  -1.0534  -1.9093
