27

Co      -0.0474  0.0133  -0.0303
Cl      -1.0874  1.6003  -1.1976
Cl      1.2244  1.5292  1.4323
C       2.7553  -0.7567  -0.8013
C       2.2186  -2.0160  -0.0764
C       -2.6106  -1.3415  -0.4682
C       -2.4571  -1.2253  1.0743
N       1.5147  0.0663  -1.3252
N       1.1263  -1.5062  0.7733
N       -1.2086  -1.3394  -1.0067
N       -1.5231  -0.0186  1.3242
H       2.9374  -2.6348  0.4691
H       1.7696  -2.6314  -0.8505
H       -3.0588  -0.4122  -0.8155
H       -3.1963  -2.1733  -0.8580
H       1.7576  1.0435  -1.3962
H       1.2901  -0.2263  -2.2537
H       -2.0194  0.8521  1.2677
H       -1.1120  -0.0504  2.2441
H       -2.0169  -2.0936  1.5479
H       -3.4132  -1.0456  1.5417
H       0.5760  -2.2574  1.1475
H       1.5279  -1.0202  1.5595
H       3.3178  -1.0755  -1.6672
H       3.3776  -0.0928  -0.2043
H       -0.7927  -2.2601  -0.9119
H       -1.2203  -1.1145  -1.9892
