27

Co      0.0084  -0.0682  -0.0355
Cl      -1.1282  1.6602  -1.2289
Cl      1.1905  1.4827  1.3985
C       2.6704  -0.7191  -0.7845
C       2.1423  -1.9438  -0.1271
C       -2.5562  -1.2580  -0.4069
C       -2.4368  -1.2028  1.0789
N       1.5314  0.0716  -1.3277
N       1.1630  -1.5018  0.9111
N       -1.1650  -1.2922  -0.9901
N       -1.5695  -0.0312  1.3037
H       2.8515  -2.5081  0.4663
H       1.7217  -2.6143  -0.8687
H       -3.1132  -0.3744  -0.6978
H       -3.0052  -2.1425  -0.8783
H       1.6763  1.0796  -1.2257
H       1.1186  -0.0977  -2.2366
H       -1.9718  0.8651  1.0055
H       -1.1858  0.1004  2.2350
H       -2.0063  -2.1235  1.4519
H       -3.3709  -1.0288  1.5932
H       0.6320  -2.2566  1.2972
H       1.4874  -0.8620  1.6549
H       3.2562  -0.8607  -1.6955
H       3.2703  -0.1775  -0.0683
H       -0.7053  -2.1919  -0.9841
H       -1.1565  -0.9056  -1.9183
