27

Co      -0.0004  0.0122  -0.0175
Cl      -1.0992  1.6121  -1.2054
Cl      1.2146  1.5234  1.4245
C       2.7958  -0.7283  -0.8269
C       2.2156  -2.0451  -0.1031
C       -2.6448  -1.3383  -0.4584
C       -2.4721  -1.2370  1.0739
N       1.5184  0.0757  -1.3655
N       1.0773  -1.4939  0.8390
N       -1.2286  -1.3761  -1.0063
N       -1.5388  -0.0332  1.3186
H       2.8023  -2.6827  0.6121
H       1.8093  -2.6763  -0.8969
H       -3.1557  -0.4132  -0.7342
H       -3.1389  -2.1881  -0.9646
H       1.6435  1.0807  -1.3733
H       1.0557  -0.1844  -2.2320
H       -1.9559  0.8653  1.1407
H       -1.0984  0.0089  2.2281
H       -2.0594  -2.1494  1.4780
H       -3.3790  -1.0045  1.6216
H       0.4005  -2.1957  1.1260
H       1.3554  -0.9464  1.6548
H       3.3267  -0.8301  -1.7971
H       3.4086  -0.1377  -0.1522
H       -0.7286  -2.2621  -0.9287
H       -1.1717  -1.0443  -1.9545
