27

Co      -0.0371  -0.0133  -0.0698
Cl      -1.0826  1.6106  -1.2007
Cl      1.2226  1.5419  1.4480
C       2.6910  -0.7327  -0.8052
C       2.1658  -1.9770  -0.1195
C       -2.5274  -1.2895  -0.4223
C       -2.4790  -1.2128  1.0914
N       1.5177  0.0313  -1.3478
N       1.0681  -1.5238  0.7999
N       -1.1162  -1.2909  -0.9416
N       -1.5559  -0.0753  1.3513
H       2.9520  -2.4708  0.4443
H       1.7684  -2.6854  -0.8271
H       -3.0015  -0.4041  -0.8198
H       -3.0561  -2.1592  -0.7935
H       1.7479  1.0119  -1.3959
H       1.3019  -0.2453  -2.2854
H       -2.0258  0.8023  1.2316
H       -1.1827  -0.0695  2.2861
H       -2.0793  -2.1093  1.5410
H       -3.4600  -1.0452  1.5041
H       0.5677  -2.3119  1.1653
H       1.4762  -1.0479  1.5862
H       3.3969  -0.9685  -1.5828
H       3.1777  -0.0886  -0.0879
H       -0.7197  -2.2179  -0.8455
H       -1.1531  -1.0874  -1.9305
