27

Co      -0.0028  0.0078  -0.0130
Cl      -1.0967  1.6096  -1.2030
Cl      1.2122  1.5209  1.4196
C       2.7254  -0.7527  -0.8286
C       2.1919  -1.9678  -0.1156
C       -2.6341  -1.3206  -0.4419
C       -2.4592  -1.2160  1.0511
N       1.5261  0.0254  -1.2768
N       1.0776  -1.4596  0.7609
N       -1.2200  -1.3250  -0.9498
N       -1.5100  -0.0835  1.2435
H       2.9500  -2.4543  0.4973
H       1.8022  -2.7024  -0.8088
H       -3.1399  -0.4619  -0.8485
H       -3.1514  -2.2164  -0.7560
H       1.7664  1.0031  -1.3580
H       1.2424  -0.2586  -2.1890
H       -1.9860  0.7891  1.0776
H       -1.1823  -0.0343  2.1948
H       -2.0172  -2.1172  1.4597
H       -3.3874  -1.0379  1.5747
H       0.5365  -2.2310  1.1040
H       1.4916  -1.0197  1.5624
H       3.3599  -1.0044  -1.6623
H       3.2885  -0.1267  -0.1493
H       -0.8473  -2.2595  -0.8696
H       -1.2325  -1.0989  -1.9329
