27

Co      -0.0082  -0.0667  -0.0010
Cl      -1.1228  1.6633  -1.2491
Cl      1.1942  1.4988  1.3974
C       2.7098  -0.7360  -0.8449
C       2.1697  -1.9393  -0.0948
C       -2.5550  -1.3343  -0.4260
C       -2.4671  -1.1588  1.0804
N       1.5403  0.0747  -1.2961
N       1.0923  -1.4755  0.8435
N       -1.1747  -1.2770  -1.0371
N       -1.5029  -0.0577  1.3312
H       2.9474  -2.4500  0.4548
H       1.7268  -2.6480  -0.7785
H       -3.1209  -0.5251  -0.8582
H       -3.0354  -2.2682  -0.6916
H       1.7592  1.0618  -1.2658
H       1.2919  -0.1268  -2.2474
H       -1.9292  0.8414  1.1821
H       -1.1714  -0.0517  2.2819
H       -2.1096  -2.0515  1.5720
H       -3.4393  -0.9283  1.4858
H       0.5942  -2.2678  1.2008
H       1.5161  -1.0070  1.6281
H       3.3176  -1.0452  -1.6817
H       3.3146  -0.1193  -0.1990
H       -0.8125  -2.2131  -1.1695
H       -1.2610  -0.8538  -1.9509
