27

Co      -0.0461  -0.0208  -0.0505
Cl      -1.0776  1.6075  -1.2094
Cl      1.2140  1.5298  1.4335
C       2.6351  -0.7086  -0.8063
C       2.1424  -1.9621  -0.0933
C       -2.5527  -1.3512  -0.4404
C       -2.4485  -1.1468  1.0579
N       1.4884  0.0849  -1.3490
N       1.0986  -1.5782  0.9113
N       -1.1581  -1.2586  -0.9969
N       -1.4246  -0.0889  1.2886
H       2.9794  -2.4685  0.3774
H       1.6964  -2.6562  -0.7883
H       -3.1480  -0.5713  -0.9043
H       -2.9893  -2.3124  -0.6929
H       1.7223  1.0670  -1.3400
H       1.2771  -0.1469  -2.3013
H       -1.8441  0.8286  1.2795
H       -0.9966  -0.1779  2.1953
H       -2.1238  -2.0542  1.5484
H       -3.4004  -0.8651  1.4887
H       0.6468  -2.3929  1.2836
H       1.5301  -1.0929  1.6833
H       3.3244  -0.9769  -1.5921
H       3.1539  -0.0720  -0.1117
H       -0.7375  -2.1714  -0.9899
H       -1.2188  -0.9640  -1.9531
