27

Co      -0.0728  -0.0217  -0.0042
Cl      -1.1004  1.6462  -1.2324
Cl      1.1929  1.4876  1.4023
C       2.7358  -0.7309  -0.7763
C       2.1503  -1.9448  -0.1589
C       -2.5394  -1.3052  -0.4298
C       -2.4439  -1.1796  1.0460
N       1.5717  -0.0100  -1.3793
N       1.1148  -1.4825  0.8207
N       -1.1187  -1.2460  -0.9036
N       -1.4708  -0.0977  1.2920
H       2.8024  -2.5387  0.4985
H       1.7647  -2.6007  -0.9354
H       -3.1617  -0.4987  -0.7952
H       -2.8842  -2.2620  -0.8673
H       1.6941  0.9935  -1.3795
H       1.1696  -0.2820  -2.2601
H       -1.8370  0.8348  1.1736
H       -1.0100  -0.1125  2.1883
H       -2.1071  -2.1297  1.4497
H       -3.3552  -0.8979  1.5562
H       0.5901  -2.2476  1.1883
H       1.4297  -0.8718  1.5854
H       3.3728  -0.8725  -1.6468
H       3.2800  -0.1673  -0.0363
H       -0.5755  -2.1126  -0.7906
H       -1.0514  -0.9423  -1.8557
