27

Co      0.0640  -0.0077  0.0069
Cl      -1.0774  1.6092  -1.2229
Cl      1.1311  1.4242  1.3420
C       2.5443  -0.7112  -0.7826
C       2.0732  -1.8579  -0.0666
C       -2.4712  -1.3257  -0.4320
C       -2.4323  -1.1275  1.0668
N       1.4390  0.0722  -1.2859
N       1.0250  -1.4736  0.7593
N       -1.1124  -1.3428  -1.0529
N       -1.4567  -0.0595  1.3915
H       2.8939  -2.3071  0.4680
H       1.7094  -2.5919  -0.7741
H       -2.9858  -0.4965  -0.8699
H       -3.0179  -2.2239  -0.6777
H       1.7046  1.0283  -1.4279
H       1.1299  -0.2656  -2.1797
H       -1.8652  0.8530  1.3218
H       -1.1213  -0.1448  2.3296
H       -2.1476  -2.0273  1.6048
H       -3.4374  -0.8632  1.3916
H       0.4243  -2.2641  0.9492
H       1.3776  -1.1447  1.6507
H       3.1231  -1.1108  -1.6048
H       3.1889  -0.0779  -0.1909
H       -0.7765  -2.2790  -1.1319
H       -1.2112  -0.9805  -1.9872
