27

Co      -0.0495  -0.0010  -0.0108
Cl      -1.0742  1.5978  -1.2052
Cl      1.1645  1.4427  1.3634
C       2.6756  -0.7228  -0.8058
C       2.1612  -1.9595  -0.1112
C       -2.5168  -1.3017  -0.4489
C       -2.4016  -1.1458  1.0506
N       1.4763  0.0424  -1.2569
N       1.0853  -1.4624  0.8033
N       -1.1163  -1.2651  -0.9795
N       -1.4321  -0.0532  1.2997
H       2.9340  -2.4630  0.4534
H       1.7406  -2.6723  -0.8059
H       -3.0611  -0.4846  -0.8881
H       -2.9970  -2.2282  -0.7240
H       1.6974  1.0218  -1.3128
H       1.2110  -0.2297  -2.1833
H       -1.8786  0.8463  1.2366
H       -1.0482  -0.0938  2.2232
H       -2.0165  -2.0507  1.5017
H       -3.3526  -0.9320  1.5095
H       0.6000  -2.2382  1.2169
H       1.5296  -0.9666  1.5617
H       3.3200  -0.9527  -1.6400
H       3.2208  -0.1032  -0.1148
H       -0.7159  -2.1837  -0.9272
H       -1.1482  -1.0000  -1.9453
