27

Co      0.0205  -0.0127  -0.0082
Cl      -1.0573  1.5744  -1.1991
Cl      1.1200  1.3840  1.3261
C       2.5934  -0.6619  -0.8134
C       2.0750  -1.9206  -0.0799
C       -2.4405  -1.3082  -0.4589
C       -2.3921  -1.0983  1.0789
N       1.3918  0.0891  -1.2533
N       1.0138  -1.4167  0.8405
N       -1.0709  -1.2881  -1.0891
N       -1.4182  -0.0187  1.3898
H       2.9450  -2.4437  0.3077
H       1.5333  -2.5884  -0.7390
H       -2.9024  -0.4794  -0.9775
H       -3.0640  -2.1979  -0.5711
H       1.6691  1.0434  -1.4509
H       1.2785  -0.2918  -2.1983
H       -1.9134  0.8632  1.3661
H       -1.1392  -0.1033  2.3517
H       -2.0279  -1.9607  1.6288
H       -3.4213  -0.9244  1.3905
H       0.5405  -2.2021  1.2562
H       1.6014  -1.0868  1.6075
H       3.3442  -1.0089  -1.5212
H       3.0492  0.0417  -0.1320
H       -0.8460  -2.2695  -1.2192
H       -1.2346  -0.9538  -2.0300
