27

Co      0.0591  0.0547  0.0455
Cl      -1.0693  1.5660  -1.2105
Cl      1.1130  1.3666  1.3047
C       2.6683  -0.7007  -0.8497
C       2.1174  -1.9195  -0.0777
C       -2.5463  -1.3792  -0.4668
C       -2.4466  -1.1138  1.0595
N       1.4610  0.0699  -1.2482
N       1.0267  -1.3838  0.8018
N       -1.1834  -1.3276  -1.1169
N       -1.4351  -0.0535  1.3771
H       2.9591  -2.4402  0.3578
H       1.5878  -2.6047  -0.7284
H       -3.0617  -0.5966  -1.0138
H       -3.1404  -2.3087  -0.5131
H       1.7705  1.0105  -1.5303
H       1.2789  -0.3637  -2.1538
H       -1.9273  0.8320  1.3862
H       -1.1794  -0.1839  2.3476
H       -2.1028  -1.9836  1.6157
H       -3.4579  -0.9031  1.3967
H       0.4813  -2.1636  1.1238
H       1.5971  -1.1435  1.6226
H       3.3723  -1.0978  -1.5826
H       3.1895  -0.0038  -0.2066
H       -0.9624  -2.3101  -1.3094
H       -1.3559  -0.9380  -2.0394
