27

Co      0.0018  0.0179  0.0053
Cl      -1.0535  1.5425  -1.1798
Cl      1.1201  1.3835  1.3154
C       2.6559  -0.7074  -0.8539
C       2.1205  -1.9009  -0.0739
C       -2.4965  -1.2812  -0.4429
C       -2.3984  -1.1424  1.0638
N       1.5080  0.1121  -1.3212
N       1.0234  -1.4686  0.8449
N       -1.1155  -1.2811  -1.0263
N       -1.4810  -0.0137  1.3576
H       2.9084  -2.3772  0.4826
H       1.7047  -2.6377  -0.7493
H       -3.0194  -0.4446  -0.8638
H       -3.0178  -2.1829  -0.7143
H       1.7484  1.0844  -1.3568
H       1.2189  -0.1407  -2.2480
H       -1.9425  0.8709  1.2511
H       -1.1371  -0.0347  2.2930
H       -1.9850  -2.0354  1.5124
H       -3.3743  -0.9820  1.4984
H       0.4742  -2.2638  1.1139
H       1.4188  -1.0828  1.6839
H       3.2570  -1.0473  -1.6876
H       3.2706  -0.0850  -0.2231
H       -0.7530  -2.2109  -1.0534
H       -1.1707  -0.9446  -1.9698
