27

Co      0.0117  0.0572  0.0074
Cl      -1.0629  1.5511  -1.1825
Cl      1.1192  1.3588  1.3137
C       2.6484  -0.6887  -0.7936
C       2.1018  -1.9266  -0.1111
C       -2.5389  -1.3019  -0.4569
C       -2.3928  -1.1460  1.0435
N       1.4860  0.0716  -1.3179
N       1.1180  -1.4563  0.9023
N       -1.1589  -1.3053  -1.0438
N       -1.4648  -0.0250  1.3284
H       2.8887  -2.5163  0.3362
H       1.5840  -2.5610  -0.8250
H       -3.0748  -0.4698  -0.8805
H       -3.0623  -2.2073  -0.7008
H       1.7212  1.0375  -1.4762
H       1.1854  -0.2961  -2.2044
H       -1.9349  0.8642  1.2607
H       -1.1031  -0.0742  2.2566
H       -1.9664  -2.0467  1.4705
H       -3.3526  -0.9880  1.5167
H       0.6028  -2.2273  1.2829
H       1.5960  -1.0117  1.6637
H       3.3420  -0.9432  -1.5847
H       3.1616  -0.0635  -0.0826
H       -0.7976  -2.2363  -1.0385
H       -1.2091  -0.9956  -1.9939
