27

Co      0.0106  0.0671  0.0025
Cl      -1.0601  1.5560  -1.1975
Cl      1.1323  1.4005  1.3286
C       2.6515  -0.7210  -0.8528
C       2.1478  -1.9317  -0.0676
C       -2.5210  -1.3398  -0.4455
C       -2.4379  -1.1337  1.0623
N       1.5158  0.1140  -1.3358
N       1.0614  -1.5461  0.8862
N       -1.1611  -1.3385  -1.0868
N       -1.4830  -0.0373  1.4117
H       2.9733  -2.3944  0.4502
H       1.7311  -2.6681  -0.7391
H       -3.0741  -0.5352  -0.9020
H       -3.0435  -2.2617  -0.6541
H       1.7882  1.0747  -1.4155
H       1.2060  -0.1674  -2.2468
H       -1.9265  0.8658  1.4236
H       -1.0939  -0.1761  2.3286
H       -2.0892  -2.0318  1.5516
H       -3.4288  -0.9254  1.4461
H       0.4968  -2.3560  1.0978
H       1.4474  -1.2041  1.7531
H       3.2637  -1.0591  -1.6793
H       3.2627  -0.0951  -0.2199
H       -0.7914  -2.2652  -1.1450
H       -1.2530  -0.9844  -2.0227
