27

Co      -0.0556  -0.0567  -0.0386
Cl      -1.1021  1.6534  -1.2401
Cl      1.1980  1.5092  1.4123
C       2.6595  -0.7204  -0.7952
C       2.1470  -1.9465  -0.1126
C       -2.5055  -1.3159  -0.4131
C       -2.4551  -1.1516  1.0704
N       1.5366  0.0732  -1.3789
N       1.1161  -1.5780  0.9121
N       -1.1095  -1.2342  -0.9674
N       -1.4694  -0.0831  1.3339
H       2.8778  -2.4658  0.4966
H       1.7762  -2.6490  -0.8501
H       -3.1572  -0.5313  -0.7888
H       -2.8420  -2.2873  -0.8253
H       1.6820  1.0798  -1.2461
H       1.1570  -0.0782  -2.3048
H       -1.8096  0.8619  1.2339
H       -0.9870  -0.1251  2.2209
H       -2.1714  -2.0926  1.5271
H       -3.3941  -0.8321  1.5087
H       0.6083  -2.3717  1.2363
H       1.4023  -0.9703  1.6971
H       3.2527  -0.8985  -1.6882
H       3.2584  -0.1644  -0.0960
H       -0.5714  -2.1006  -0.9590
H       -1.1056  -0.8461  -1.8919
