27

Co      -0.0572  -0.0104  -0.0466
Cl      -1.1029  1.6480  -1.2272
Cl      1.2024  1.5131  1.4183
C       2.7589  -0.7187  -0.8382
C       2.1965  -2.0212  -0.1441
C       -2.5313  -1.2759  -0.4186
C       -2.4690  -1.2112  1.0811
N       1.5601  0.0470  -1.4060
N       1.0600  -1.5780  0.9047
N       -1.0934  -1.2792  -0.8979
N       -1.5362  -0.0864  1.3416
H       2.8719  -2.5383  0.5543
H       1.8358  -2.7406  -0.8721
H       -3.0895  -0.4164  -0.7642
H       -2.9259  -2.1874  -0.9104
H       1.6750  1.0597  -1.3216
H       1.1488  -0.1431  -2.3113
H       -1.9290  0.8255  1.1759
H       -1.0816  -0.0557  2.2448
H       -2.0919  -2.1563  1.4537
H       -3.3935  -0.9885  1.5886
H       0.5038  -2.3516  1.2127
H       1.3530  -1.0091  1.7034
H       3.4261  -0.7624  -1.7197
H       3.2518  -0.1522  -0.0549
H       -0.5636  -2.1533  -0.7472
H       -1.0262  -1.0184  -1.8672
