27

Co      -0.0474  0.0039  -0.0346
Cl      -1.0766  1.5961  -1.2036
Cl      1.1670  1.4497  1.3725
C       2.6501  -0.7114  -0.8149
C       2.1466  -1.9542  -0.0911
C       -2.5169  -1.2983  -0.4392
C       -2.4217  -1.1600  1.0625
N       1.5095  0.0949  -1.3499
N       1.1068  -1.5708  0.9150
N       -1.1116  -1.2386  -0.9614
N       -1.4602  -0.0557  1.3112
H       2.9794  -2.4645  0.3754
H       1.6960  -2.6478  -0.7851
H       -3.0656  -0.4772  -0.8732
H       -2.9821  -2.2245  -0.7411
H       1.7501  1.0743  -1.3410
H       1.2924  -0.1340  -2.3030
H       -1.9158  0.8396  1.2642
H       -1.0523  -0.1057  2.2249
H       -2.0303  -2.0624  1.5126
H       -3.3816  -0.9576  1.5134
H       0.6538  -2.3881  1.2837
H       1.5410  -1.0962  1.6902
H       3.3244  -0.9981  -1.6081
H       3.1877  -0.0817  -0.1306
H       -0.6923  -2.1511  -0.8929
H       -1.1422  -0.9891  -1.9330
