27

Co      -0.0106  -0.0716  0.0040
Cl      -1.1204  1.6608  -1.2466
Cl      1.1917  1.4964  1.3925
C       2.7098  -0.7385  -0.8376
C       2.1746  -1.9442  -0.0997
C       -2.5698  -1.3343  -0.4284
C       -2.4622  -1.1612  1.0706
N       1.5182  0.0575  -1.2569
N       1.0824  -1.4387  0.8018
N       -1.1698  -1.2402  -0.9880
N       -1.4685  -0.0774  1.2748
H       2.9352  -2.4427  0.4891
H       1.7513  -2.6700  -0.7810
H       -3.1528  -0.5398  -0.8656
H       -3.0109  -2.2879  -0.7064
H       1.7298  1.0471  -1.2314
H       1.2624  -0.1440  -2.2057
H       -1.8899  0.8242  1.1060
H       -1.1444  -0.0444  2.2279
H       -2.1096  -2.0614  1.5548
H       -3.4123  -0.9013  1.5103
H       0.5844  -2.2162  1.1934
H       1.5136  -0.9481  1.5716
H       3.3078  -1.0207  -1.6915
H       3.3146  -0.1266  -0.1867
H       -0.7904  -2.1689  -1.0860
H       -1.2340  -0.8440  -1.9116
