27

Co      0.0000  -0.0087  -0.0000
Cl      -1.0573  1.5779  -1.1956
Cl      1.1270  1.4074  1.3331
C       2.5270  -0.7056  -0.8137
C       2.0555  -1.8103  -0.1050
C       -2.4320  -1.2562  -0.4200
C       -2.3548  -1.0923  1.0332
N       1.4954  0.0629  -1.2945
N       1.0294  -1.5087  0.8352
N       -1.0832  -1.3232  -1.0324
N       -1.4359  -0.0520  1.3470
H       2.9530  -2.1621  0.4082
H       1.7079  -2.6273  -0.7374
H       -2.9872  -0.4792  -0.9084
H       -2.9471  -2.1965  -0.5802
H       1.7617  1.0262  -1.3447
H       1.2046  -0.1971  -2.2172
H       -1.8580  0.8535  1.2625
H       -1.1004  -0.1121  2.2810
H       -1.9842  -2.0101  1.4653
H       -3.3409  -0.9278  1.4369
H       0.5531  -2.3647  1.0647
H       1.4140  -1.1490  1.6933
H       3.1957  -1.0720  -1.5792
H       3.1071  -0.1086  -0.1400
H       -0.7635  -2.2660  -1.0448
H       -1.1644  -1.0197  -1.9848
