27

Co      0.0113  -0.0237  -0.0335
Cl      -1.1323  1.6747  -1.2407
Cl      1.2072  1.5182  1.4138
C       2.6896  -0.7492  -0.7737
C       2.2125  -2.0201  -0.0715
C       -2.6122  -1.3225  -0.4387
C       -2.4676  -1.2374  1.0810
N       1.4871  0.1004  -1.3193
N       1.1696  -1.5775  0.8522
N       -1.2021  -1.3410  -0.9769
N       -1.5377  -0.0339  1.3046
H       2.8924  -2.6124  0.5482
H       1.8336  -2.6629  -0.8697
H       -3.1174  -0.3870  -0.6957
H       -3.1019  -2.1650  -0.9815
H       1.6640  1.0993  -1.2515
H       1.0694  -0.0858  -2.2204
H       -1.9480  0.8660  1.1209
H       -1.0863  0.0145  2.2099
H       -2.0784  -2.1437  1.5164
H       -3.3912  -0.9841  1.5898
H       0.5485  -2.3094  1.1521
H       1.4298  -0.9915  1.6616
H       3.1509  -0.9467  -1.7626
H       3.3950  -0.1722  -0.1691
H       -0.6881  -2.2204  -0.8743
H       -1.1569  -1.0370  -1.9352
