27

Co      -0.0088  -0.0468  0.0058
Cl      -1.0992  1.6120  -1.2143
Cl      1.1650  1.4474  1.3611
C       2.7170  -0.7319  -0.8431
C       2.1570  -1.9239  -0.1006
C       -2.5559  -1.2907  -0.4303
C       -2.4370  -1.1759  1.0705
N       1.5347  0.0660  -1.2780
N       1.0705  -1.4110  0.7992
N       -1.1513  -1.2311  -0.9697
N       -1.5026  -0.0458  1.2801
H       2.9056  -2.4371  0.4871
H       1.7244  -2.6413  -0.7855
H       -3.0999  -0.4582  -0.8360
H       -3.0286  -2.2109  -0.7452
H       1.7498  1.0528  -1.2698
H       1.2761  -0.1528  -2.2214
H       -1.9600  0.8336  1.0705
H       -1.1970  0.0309  2.2388
H       -2.0129  -2.0696  1.5112
H       -3.3888  -0.9938  1.5428
H       0.5633  -2.1849  1.1873
H       1.5027  -0.9295  1.5708
H       3.3186  -1.0326  -1.6888
H       3.3219  -0.1192  -0.1932
H       -0.7795  -2.1627  -1.0187
H       -1.1934  -0.8737  -1.9071
