27

Co      -0.0117  -0.0568  -0.0074
Cl      -1.1365  1.6873  -1.2490
Cl      1.2115  1.5266  1.4181
C       2.8054  -0.7236  -0.8556
C       2.2274  -2.0513  -0.0824
C       -2.5976  -1.3230  -0.4620
C       -2.4657  -1.2271  1.0990
N       1.5027  0.0932  -1.3262
N       1.0587  -1.4920  0.8347
N       -1.1693  -1.3356  -0.9916
N       -1.5251  -0.0201  1.3236
H       2.9041  -2.6801  0.5078
H       1.7437  -2.6728  -0.8334
H       -3.0197  -0.3769  -0.8075
H       -3.1858  -2.1467  -0.8808
H       1.6753  1.0918  -1.3276
H       1.2583  -0.1461  -2.2679
H       -2.0062  0.8480  1.1364
H       -1.1827  0.0510  2.2770
H       -2.0233  -2.0987  1.5619
H       -3.4159  -1.0455  1.5727
H       0.4822  -2.2310  1.2027
H       1.4800  -1.0288  1.6234
H       3.3943  -0.9493  -1.7354
H       3.3767  -0.0631  -0.2145
H       -0.7932  -2.2715  -0.9765
H       -1.1711  -1.0298  -1.9479
