27

Co      0.0722  0.0651  0.0075
Cl      -1.0830  1.5859  -1.2063
Cl      1.1303  1.3966  1.3295
C       2.6491  -0.7151  -0.8138
C       2.1374  -1.9477  -0.0988
C       -2.5613  -1.3237  -0.4421
C       -2.4530  -1.1753  1.0636
N       1.4666  0.0578  -1.2720
N       1.0652  -1.4563  0.8150
N       -1.1778  -1.3666  -1.0398
N       -1.5129  -0.0590  1.3628
H       2.9184  -2.4408  0.4559
H       1.7134  -2.6625  -0.7900
H       -3.0579  -0.4680  -0.8615
H       -3.1216  -2.2057  -0.7056
H       1.7219  1.0166  -1.4670
H       1.1105  -0.3155  -2.1401
H       -1.9736  0.8265  1.2519
H       -1.1953  -0.0921  2.3118
H       -2.0709  -2.0779  1.5185
H       -3.4284  -0.9893  1.4890
H       0.4514  -2.2126  1.0792
H       1.4825  -1.1012  1.6551
H       3.2947  -0.9601  -1.6425
H       3.2017  -0.0906  -0.1291
H       -0.8441  -2.3079  -1.0546
H       -1.2478  -1.0578  -1.9929
