27

Co      -0.0552  -0.0277  -0.0380
Cl      -1.0870  1.6265  -1.2105
Cl      1.1844  1.4921  1.3893
C       2.6846  -0.7009  -0.8670
C       2.2008  -2.0275  -0.0928
C       -2.5403  -1.2791  -0.4511
C       -2.3900  -1.1652  1.0558
N       1.4489  0.1079  -1.2762
N       1.0250  -1.5740  0.9065
N       -1.0984  -1.2599  -0.9146
N       -1.4028  -0.0639  1.2320
H       3.0041  -2.4577  0.4997
H       1.8029  -2.8064  -0.7401
H       -3.0572  -0.4425  -0.8912
H       -3.0124  -2.1993  -0.7701
H       1.6436  1.1068  -1.1890
H       1.1970  -0.0391  -2.2455
H       -1.8599  0.8254  1.1122
H       -1.0161  -0.0301  2.1575
H       -1.9617  -2.0754  1.4557
H       -3.3054  -0.9602  1.5943
H       0.5503  -2.3740  1.2859
H       1.4573  -1.0996  1.6858
H       3.3499  -0.8416  -1.7186
H       3.1888  -0.0797  -0.1418
H       -0.6894  -2.1769  -0.7747
H       -1.0822  -1.0699  -1.9093
