27

Co      0.0533  0.0320  0.0178
Cl      -1.0959  1.6153  -1.2191
Cl      1.1432  1.4229  1.3442
C       2.6349  -0.7029  -0.8204
C       2.1259  -1.9344  -0.0903
C       -2.5783  -1.3304  -0.4531
C       -2.4212  -1.1605  1.0435
N       1.4730  0.0834  -1.3039
N       1.0695  -1.5092  0.8758
N       -1.1900  -1.3650  -1.0298
N       -1.4526  -0.0613  1.3019
H       2.9313  -2.4432  0.4121
H       1.6799  -2.6346  -0.7850
H       -3.0943  -0.4935  -0.8883
H       -3.1199  -2.2318  -0.6939
H       1.7166  1.0501  -1.4355
H       1.1466  -0.2465  -2.1927
H       -1.9022  0.8321  1.2012
H       -1.1185  -0.0925  2.2437
H       -2.0313  -2.0662  1.4857
H       -3.3699  -0.9538  1.5169
H       0.4978  -2.2958  1.1311
H       1.4893  -1.1558  1.7177
H       3.2810  -0.9835  -1.6384
H       3.1979  -0.0748  -0.1497
H       -0.8516  -2.3045  -1.0290
H       -1.2340  -1.0614  -1.9846
