27

Co      -0.0658  -0.0268  -0.0024
Cl      -1.1068  1.6431  -1.2370
Cl      1.1998  1.4965  1.3967
C       2.7036  -0.7476  -0.8181
C       2.1897  -1.9519  -0.1097
C       -2.5719  -1.3411  -0.4322
C       -2.4265  -1.1407  1.0399
N       1.5671  0.0746  -1.3295
N       1.1609  -1.5603  0.9090
N       -1.1987  -1.2894  -1.0325
N       -1.4500  -0.0599  1.3001
H       2.9136  -2.4723  0.5113
H       1.8108  -2.6654  -0.8333
H       -3.2480  -0.5763  -0.8180
H       -2.9286  -2.3248  -0.7691
H       1.7319  1.0779  -1.1994
H       1.1485  -0.0626  -2.2462
H       -1.8032  0.8815  1.2265
H       -0.9665  -0.1228  2.1855
H       -2.0955  -2.0769  1.4670
H       -3.3407  -0.8459  1.5430
H       0.6535  -2.3540  1.2352
H       1.4574  -0.9560  1.6906
H       3.2372  -0.9452  -1.7559
H       3.3711  -0.2088  -0.1521
H       -0.6780  -2.1628  -1.0489
H       -1.1963  -0.8732  -1.9472
