27

Co      0.0482  0.0345  0.0262
Cl      -1.1100  1.6342  -1.2395
Cl      1.1167  1.3808  1.3133
C       2.6127  -0.7415  -0.8312
C       2.0988  -1.8280  -0.1160
C       -2.4910  -1.2755  -0.4007
C       -2.4468  -1.1541  1.0584
N       1.6007  0.0447  -1.3475
N       1.0979  -1.5317  0.8599
N       -1.1352  -1.3428  -1.0180
N       -1.5685  -0.0739  1.4070
H       2.9891  -2.2268  0.3625
H       1.7127  -2.6056  -0.7611
H       -3.0238  -0.4691  -0.8650
H       -3.0213  -2.1938  -0.6047
H       1.8950  0.9982  -1.4556
H       1.2942  -0.2599  -2.2495
H       -2.0185  0.8107  1.2759
H       -1.2798  -0.1143  2.3661
H       -2.0568  -2.0693  1.4842
H       -3.4554  -1.0340  1.4373
H       0.5855  -2.3927  1.0343
H       1.4860  -1.2279  1.7428
H       3.2951  -1.1487  -1.5745
H       3.2006  -0.1452  -0.1593
H       -0.8263  -2.2937  -1.0636
H       -1.2227  -1.0140  -1.9620
