27

Co      0.0000  -0.0060  0.0017
Cl      -1.0729  1.5950  -1.2056
Cl      1.1421  1.4234  1.3468
C       2.6088  -0.7041  -0.8153
C       2.1024  -1.8939  -0.0735
C       -2.4881  -1.2998  -0.4524
C       -2.3931  -1.1354  1.0581
N       1.4710  0.0875  -1.3062
N       1.0449  -1.4945  0.8245
N       -1.1091  -1.3080  -1.0243
N       -1.4416  -0.0319  1.3416
H       2.9594  -2.3872  0.3684
H       1.6485  -2.5928  -0.7591
H       -2.9630  -0.4552  -0.9192
H       -3.0732  -2.1862  -0.6571
H       1.7504  1.0475  -1.4182
H       1.2963  -0.2271  -2.2478
H       -1.9227  0.8498  1.2923
H       -1.1180  -0.0924  2.2861
H       -1.9981  -2.0142  1.5509
H       -3.3857  -0.9646  1.4503
H       0.5524  -2.3120  1.1301
H       1.5117  -1.1552  1.6517
H       3.2682  -1.1161  -1.5732
H       3.1771  -0.0344  -0.1929
H       -0.8077  -2.2623  -1.0339
H       -1.1909  -1.0368  -1.9886
