27

Co      -0.0164  0.0034  -0.0207
Cl      -1.0855  1.6125  -1.2181
Cl      1.1678  1.4546  1.3724
C       2.6990  -0.7084  -0.8150
C       2.1743  -2.0095  -0.0891
C       -2.5408  -1.3348  -0.4529
C       -2.4532  -1.1705  1.0776
N       1.4575  0.0776  -1.2991
N       1.0707  -1.4933  0.8443
N       -1.1242  -1.2632  -0.9822
N       -1.4537  -0.0597  1.3292
H       2.9200  -2.5680  0.4616
H       1.7176  -2.6756  -0.8095
H       -3.0670  -0.4910  -0.8700
H       -3.0250  -2.2429  -0.7827
H       1.6664  1.0592  -1.3627
H       1.1941  -0.2074  -2.2229
H       -1.8979  0.8412  1.2699
H       -1.0622  -0.1060  2.2527
H       -2.1037  -2.0680  1.5711
H       -3.4125  -0.9139  1.5047
H       0.5307  -2.2470  1.2286
H       1.5084  -1.0220  1.6191
H       3.3393  -0.9197  -1.6600
H       3.2321  -0.0655  -0.1338
H       -0.7092  -2.1768  -0.9623
H       -1.1613  -0.9677  -1.9389
