27

Co      0.0253  0.0151  0.0237
Cl      -1.0936  1.6276  -1.2244
Cl      1.1301  1.4007  1.3286
C       2.6085  -0.7094  -0.8154
C       2.1070  -1.8902  -0.1083
C       -2.4954  -1.2863  -0.4471
C       -2.3802  -1.1310  1.0425
N       1.4753  0.0437  -1.2577
N       1.0595  -1.4753  0.8186
N       -1.1263  -1.3749  -1.0418
N       -1.4551  -0.0448  1.3441
H       2.9794  -2.3423  0.3490
H       1.6627  -2.6235  -0.7644
H       -2.9578  -0.4474  -0.9364
H       -3.1135  -2.1705  -0.5947
H       1.7569  0.9984  -1.4376
H       1.2435  -0.3145  -2.1686
H       -1.9394  0.8328  1.2621
H       -1.1731  -0.0913  2.3058
H       -1.9609  -2.0230  1.4892
H       -3.3698  -1.0042  1.4561
H       0.5641  -2.2949  1.1174
H       1.5496  -1.1647  1.6461
H       3.3147  -1.0542  -1.5593
H       3.1306  -0.0614  -0.1338
H       -0.8740  -2.3474  -1.0438
H       -1.2124  -1.1181  -2.0101
