27

Co      0.0249  -0.0073  0.0158
Cl      -1.0901  1.6190  -1.2257
Cl      1.1248  1.3956  1.3271
C       2.6060  -0.6939  -0.8122
C       2.0861  -1.8844  -0.0736
C       -2.4826  -1.3086  -0.4487
C       -2.4069  -1.1306  1.0653
N       1.4827  0.0965  -1.3298
N       1.0647  -1.5006  0.8689
N       -1.1109  -1.3113  -1.0486
N       -1.4565  -0.0307  1.3713
H       2.9483  -2.4153  0.3182
H       1.5895  -2.5479  -0.7677
H       -2.9645  -0.4686  -0.9178
H       -3.0686  -2.1972  -0.6424
H       1.7593  1.0543  -1.4609
H       1.3028  -0.2397  -2.2636
H       -1.9303  0.8549  1.3174
H       -1.1460  -0.1006  2.3215
H       -2.0292  -2.0092  1.5736
H       -3.4124  -0.9548  1.4296
H       0.5678  -2.3206  1.1629
H       1.5455  -1.1779  1.6964
H       3.2810  -1.1207  -1.5542
H       3.1666  -0.0237  -0.1861
H       -0.8231  -2.2698  -1.1168
H       -1.2100  -0.9857  -1.9936
