27

Co      -0.0021  0.0147  0.0157
Cl      -1.0833  1.5995  -1.2087
Cl      1.1458  1.4112  1.3448
C       2.6253  -0.7100  -0.8066
C       2.0983  -1.8762  -0.1195
C       -2.5142  -1.2964  -0.4422
C       -2.3792  -1.1220  1.0348
N       1.5248  0.0531  -1.3112
N       1.1114  -1.4877  0.8816
N       -1.1659  -1.3626  -1.0839
N       -1.4693  -0.0308  1.3490
H       2.9331  -2.3828  0.3400
H       1.6366  -2.5731  -0.8019
H       -3.0563  -0.4876  -0.8983
H       -3.0629  -2.2120  -0.6161
H       1.7725  1.0193  -1.4200
H       1.2308  -0.2667  -2.2129
H       -1.9173  0.8656  1.2767
H       -1.1229  -0.0951  2.2840
H       -1.9664  -2.0263  1.4603
H       -3.3528  -0.9782  1.4766
H       0.6294  -2.3052  1.1993
H       1.5559  -1.0764  1.6796
H       3.3093  -1.0256  -1.5810
H       3.1743  -0.1000  -0.1126
H       -0.8452  -2.3098  -1.1242
H       -1.2419  -1.0241  -2.0234
