27

Co      -0.0352  -0.0160  -0.0028
Cl      -1.0846  1.6103  -1.2137
Cl      1.1642  1.4487  1.3687
C       2.6862  -0.7120  -0.8274
C       2.1343  -1.9268  -0.1030
C       -2.5106  -1.2986  -0.4438
C       -2.4148  -1.1524  1.0616
N       1.5280  0.0697  -1.3466
N       1.0673  -1.4977  0.8579
N       -1.1187  -1.2830  -0.9992
N       -1.4707  -0.0422  1.3375
H       2.9156  -2.4616  0.4139
H       1.6838  -2.6100  -0.8080
H       -3.0383  -0.4661  -0.8749
H       -3.0151  -2.2090  -0.7253
H       1.7448  1.0500  -1.3822
H       1.2841  -0.1997  -2.2798
H       -1.9200  0.8520  1.2529
H       -1.1023  -0.0758  2.2680
H       -2.0200  -2.0512  1.5151
H       -3.3817  -0.9655  1.4987
H       0.5745  -2.3006  1.1963
H       1.4927  -1.0571  1.6539
H       3.3463  -1.0165  -1.6242
H       3.2366  -0.0798  -0.1544
H       -0.7385  -2.2103  -0.9939
H       -1.1559  -0.9752  -1.9507
