27

Co      0.0232  0.0005  0.0124
Cl      -1.1056  1.6378  -1.2339
Cl      1.1434  1.4220  1.3442
C       2.6649  -0.7091  -0.8301
C       2.1324  -1.9290  -0.0935
C       -2.5219  -1.3059  -0.4407
C       -2.4287  -1.1590  1.0677
N       1.5118  0.0837  -1.3321
N       1.0719  -1.5130  0.8778
N       -1.1391  -1.3384  -1.0328
N       -1.4962  -0.0406  1.3665
H       2.9290  -2.4513  0.4077
H       1.6789  -2.6170  -0.7924
H       -3.0219  -0.4534  -0.8645
H       -3.0713  -2.1933  -0.7125
H       1.7426  1.0565  -1.4103
H       1.2236  -0.2106  -2.2447
H       -1.9471  0.8493  1.2551
H       -1.1608  -0.0682  2.3106
H       -2.0387  -2.0566  1.5255
H       -3.4072  -0.9813  1.4864
H       0.5289  -2.3112  1.1517
H       1.4883  -1.1334  1.7091
H       3.3117  -1.0148  -1.6376
H       3.2311  -0.0802  -0.1659
H       -0.7965  -2.2782  -1.0640
H       -1.1942  -1.0036  -1.9759
