27

Co      -0.0341  -0.0124  -0.0004
Cl      -1.1032  1.6366  -1.2268
Cl      1.1824  1.4701  1.3830
C       2.6933  -0.7286  -0.8022
C       2.1630  -1.9527  -0.1212
C       -2.5656  -1.3158  -0.4413
C       -2.4192  -1.1628  1.0435
N       1.5251  0.0463  -1.3089
N       1.1275  -1.5030  0.8608
N       -1.1707  -1.2988  -0.9901
N       -1.4587  -0.0624  1.2843
H       2.9025  -2.4958  0.4535
H       1.7425  -2.6393  -0.8450
H       -3.1487  -0.5004  -0.8388
H       -3.0068  -2.2508  -0.7674
H       1.7120  1.0367  -1.3136
H       1.1758  -0.1982  -2.2150
H       -1.8695  0.8492  1.1740
H       -1.0497  -0.0785  2.2000
H       -2.0372  -2.0843  1.4618
H       -3.3454  -0.9295  1.5475
H       0.6174  -2.2817  1.2253
H       1.5074  -0.9684  1.6321
H       3.3087  -0.9335  -1.6698
H       3.2727  -0.1440  -0.1063
H       -0.7270  -2.2022  -0.9506
H       -1.1698  -0.9782  -1.9377
