27

Co      -0.0343  -0.0149  -0.0092
Cl      -1.0889  1.6099  -1.2020
Cl      1.1890  1.4837  1.3930
C       2.6851  -0.7235  -0.8242
C       2.1586  -1.9462  -0.1053
C       -2.5696  -1.2936  -0.4524
C       -2.3933  -1.1724  1.0430
N       1.5099  0.0651  -1.3010
N       1.0871  -1.5003  0.8432
N       -1.1711  -1.3182  -0.9869
N       -1.4595  -0.0402  1.2610
H       2.9462  -2.4607  0.4279
H       1.7243  -2.6499  -0.8023
H       -3.0763  -0.4397  -0.8669
H       -3.1010  -2.1879  -0.7379
H       1.7357  1.0477  -1.3257
H       1.2553  -0.1844  -2.2347
H       -1.9302  0.8402  1.1364
H       -1.1001  -0.0221  2.1964
H       -1.9386  -2.0690  1.4493
H       -3.3278  -1.0141  1.5619
H       0.6005  -2.2964  1.2082
H       1.5180  -1.0388  1.6257
H       3.3269  -0.9984  -1.6455
H       3.2472  -0.0978  -0.1499
H       -0.8019  -2.2518  -0.9148
H       -1.1830  -1.0729  -1.9615
