27

Co      0.0012  -0.0032  -0.0010
Cl      -1.0854  1.6034  -1.2070
Cl      1.1515  1.4280  1.3546
C       2.6301  -0.7140  -0.8044
C       2.1110  -1.8953  -0.0894
C       -2.5088  -1.2867  -0.4431
C       -2.3961  -1.1539  1.0582
N       1.5111  0.0834  -1.3320
N       1.0963  -1.5080  0.8584
N       -1.1421  -1.3401  -1.0466
N       -1.4958  -0.0146  1.3570
H       2.9258  -2.4238  0.3801
H       1.6617  -2.5719  -0.8012
H       -2.9981  -0.4202  -0.8494
H       -3.0825  -2.1583  -0.7155
H       1.7602  1.0528  -1.4021
H       1.2497  -0.2076  -2.2526
H       -1.9602  0.8689  1.2569
H       -1.1440  -0.0436  2.2923
H       -1.9733  -2.0427  1.5057
H       -3.3774  -1.0103  1.4866
H       0.5841  -2.3141  1.1570
H       1.5075  -1.0961  1.6753
H       3.2584  -1.0742  -1.6055
H       3.2263  -0.0845  -0.1667
H       -0.7991  -2.2804  -1.0488
H       -1.1976  -1.0328  -1.9989
