27

Co      0.0000  -0.0004  0.0002
Cl      -1.0770  1.6047  -1.2153
Cl      1.1490  1.4359  1.3552
C       2.6446  -0.6995  -0.8355
C       2.1237  -1.9312  -0.0822
C       -2.4994  -1.3207  -0.4525
C       -2.4197  -1.1354  1.0652
N       1.4694  0.0821  -1.3076
N       1.0232  -1.4943  0.8379
N       -1.1104  -1.3039  -1.0229
N       -1.4373  -0.0528  1.3514
H       2.9605  -2.4217  0.3941
H       1.6651  -2.6385  -0.7561
H       -2.9937  -0.4956  -0.9390
H       -3.0579  -2.2267  -0.6475
H       1.7299  1.0465  -1.4235
H       1.2802  -0.2352  -2.2450
H       -1.9059  0.8372  1.3156
H       -1.1097  -0.1282  2.2960
H       -2.0551  -2.0213  1.5687
H       -3.4092  -0.9327  1.4481
H       0.5165  -2.3016  1.1481
H       1.5003  -1.1591  1.6619
H       3.3327  -1.0452  -1.5949
H       3.1696  -0.0285  -0.1771
H       -0.8007  -2.2554  -1.0551
H       -1.1975  -1.0129  -1.9802
