27

Co      -0.0246  -0.0085  -0.0175
Cl      -1.0943  1.6208  -1.2130
Cl      1.1972  1.4962  1.4038
C       2.7261  -0.7184  -0.8286
C       2.1873  -2.0062  -0.0938
C       -2.5734  -1.3255  -0.4611
C       -2.4305  -1.1829  1.0690
N       1.4855  0.0777  -1.3075
N       1.0795  -1.5003  0.8463
N       -1.1741  -1.3401  -1.0271
N       -1.4802  -0.0297  1.3218
H       2.9283  -2.5765  0.4560
H       1.7241  -2.6651  -0.8170
H       -3.0561  -0.4434  -0.8565
H       -3.1320  -2.1947  -0.7788
H       1.6940  1.0623  -1.3571
H       1.2232  -0.1955  -2.2334
H       -1.9475  0.8549  1.2292
H       -1.1020  -0.0447  2.2530
H       -2.0120  -2.0688  1.5238
H       -3.3828  -0.9938  1.5369
H       0.5426  -2.2619  1.2167
H       1.5110  -1.0363  1.6275
H       3.3548  -0.9480  -1.6756
H       3.2760  -0.0741  -0.1582
H       -0.7965  -2.2715  -0.9999
H       -1.2048  -1.0539  -1.9878
