27

Co      0.0241  0.0170  0.0133
Cl      -1.0992  1.6231  -1.2275
Cl      1.1369  1.4101  1.3369
C       2.6768  -0.7128  -0.8329
C       2.1334  -1.9271  -0.0953
C       -2.5219  -1.3049  -0.4388
C       -2.4398  -1.1664  1.0704
N       1.5256  0.0782  -1.3440
N       1.0674  -1.5048  0.8668
N       -1.1354  -1.3283  -1.0208
N       -1.5118  -0.0443  1.3776
H       2.9226  -2.4513  0.4151
H       1.6834  -2.6152  -0.7961
H       -3.0219  -0.4515  -0.8608
H       -3.0649  -2.1923  -0.7207
H       1.7609  1.0482  -1.4406
H       1.2346  -0.2317  -2.2512
H       -1.9683  0.8429  1.2707
H       -1.1773  -0.0765  2.3216
H       -2.0488  -2.0648  1.5273
H       -3.4219  -0.9942  1.4846
H       0.5142  -2.3010  1.1306
H       1.4801  -1.1353  1.7045
H       3.3282  -1.0249  -1.6348
H       3.2403  -0.0820  -0.1678
H       -0.7855  -2.2654  -1.0428
H       -1.1878  -1.0017  -1.9667
