27

Co      0.0232  -0.0051  0.0138
Cl      -1.1014  1.6280  -1.2242
Cl      1.1364  1.4095  1.3359
C       2.6291  -0.7137  -0.8099
C       2.1111  -1.8917  -0.0849
C       -2.5107  -1.2850  -0.4406
C       -2.4022  -1.1590  1.0606
N       1.5134  0.0891  -1.3307
N       1.0937  -1.5132  0.8645
N       -1.1378  -1.3425  -1.0341
N       -1.5005  -0.0197  1.3567
H       2.9279  -2.4167  0.3821
H       1.6622  -2.5713  -0.7954
H       -2.9911  -0.4130  -0.8447
H       -3.0866  -2.1528  -0.7221
H       1.7631  1.0575  -1.4049
H       1.2397  -0.2026  -2.2476
H       -1.9639  0.8619  1.2318
H       -1.1691  -0.0324  2.3007
H       -1.9817  -2.0495  1.5076
H       -3.3837  -1.0132  1.4886
H       0.5648  -2.3215  1.1337
H       1.4998  -1.1295  1.6988
H       3.2471  -1.0857  -1.6159
H       3.2386  -0.0862  -0.1818
H       -0.8035  -2.2851  -1.0428
H       -1.1875  -1.0275  -1.9843
