27

Co      -0.0237  0.0020  -0.0173
Cl      -1.0825  1.6040  -1.2095
Cl      1.1621  1.4445  1.3665
C       2.6557  -0.7133  -0.8066
C       2.1384  -1.9400  -0.1048
C       -2.5222  -1.2984  -0.4350
C       -2.4187  -1.1576  1.0569
N       1.5130  0.0776  -1.3432
N       1.0996  -1.5346  0.8897
N       -1.1307  -1.2872  -0.9933
N       -1.4741  -0.0505  1.3294
H       2.9025  -2.4596  0.4514
H       1.7273  -2.6382  -0.8218
H       -3.0915  -0.4726  -0.8277
H       -2.9731  -2.2211  -0.7770
H       1.7103  1.0639  -1.3384
H       1.1695  -0.1609  -2.2546
H       -1.8880  0.8596  1.2350
H       -1.0555  -0.0839  2.2387
H       -2.0462  -2.0766  1.4866
H       -3.3664  -0.9363  1.5232
H       0.5758  -2.3240  1.2071
H       1.4589  -1.0312  1.6874
H       3.2781  -0.9401  -1.6609
H       3.2328  -0.1227  -0.1173
H       -0.6845  -2.1877  -0.9515
H       -1.1416  -0.9715  -1.9429
