27

Co      0.0361  0.0279  0.0040
Cl      -1.0702  1.5819  -1.2010
Cl      1.1286  1.4020  1.3313
C       2.6278  -0.6948  -0.8319
C       2.1153  -1.9292  -0.0800
C       -2.5094  -1.3079  -0.4542
C       -2.4124  -1.1455  1.0640
N       1.4480  0.0860  -1.2853
N       1.0196  -1.4721  0.8297
N       -1.1233  -1.3339  -1.0353
N       -1.4580  -0.0402  1.3551
H       2.9510  -2.4120  0.4022
H       1.6584  -2.6429  -0.7500
H       -2.9739  -0.4566  -0.9222
H       -3.1065  -2.1877  -0.6548
H       1.7200  1.0437  -1.4508
H       1.2218  -0.2641  -2.2020
H       -1.9447  0.8377  1.2870
H       -1.1559  -0.0904  2.3087
H       -2.0170  -2.0287  1.5469
H       -3.4033  -0.9782  1.4624
H       0.4747  -2.2634  1.1201
H       1.4969  -1.1633  1.6650
H       3.3099  -1.0256  -1.6015
H       3.1555  -0.0271  -0.1707
H       -0.8378  -2.2934  -1.0557
H       -1.2121  -1.0565  -1.9982
