27

Co      -0.0044  -0.0148  -0.0000
Cl      -1.0934  1.6247  -1.2262
Cl      1.1650  1.4559  1.3706
C       2.7122  -0.7062  -0.8418
C       2.1522  -1.9652  -0.1136
C       -2.5335  -1.3200  -0.4405
C       -2.4506  -1.1595  1.0711
N       1.4984  0.0533  -1.3093
N       1.0303  -1.4560  0.8339
N       -1.1248  -1.2792  -0.9864
N       -1.4677  -0.0740  1.3296
H       2.8978  -2.4834  0.4732
H       1.7121  -2.6718  -0.8031
H       -3.0746  -0.5020  -0.8847
H       -3.0115  -2.2472  -0.7225
H       1.6928  1.0371  -1.3774
H       1.2135  -0.2356  -2.2253
H       -1.9011  0.8266  1.2126
H       -1.1258  -0.0867  2.2729
H       -2.0936  -2.0676  1.5369
H       -3.4102  -0.9279  1.5026
H       0.4918  -2.2271  1.1794
H       1.4663  -1.0249  1.6288
H       3.3904  -0.9183  -1.6567
H       3.2209  -0.0767  -0.1291
H       -0.7493  -2.2077  -1.0162
H       -1.1703  -0.9434  -1.9291
