27

Co      0.0009  0.0156  -0.0008
Cl      -1.0733  1.5905  -1.2009
Cl      1.1408  1.4148  1.3463
C       2.6170  -0.7100  -0.8064
C       2.0944  -1.8776  -0.1183
C       -2.4883  -1.2724  -0.4321
C       -2.3968  -1.1448  1.0479
N       1.5141  0.0435  -1.3229
N       1.0621  -1.4873  0.8338
N       -1.1117  -1.3240  -1.0026
N       -1.4844  -0.0524  1.3469
H       2.9219  -2.3444  0.3921
H       1.6833  -2.6073  -0.7995
H       -3.0023  -0.4426  -0.8767
H       -3.0219  -2.1759  -0.6738
H       1.7600  1.0099  -1.4338
H       1.2296  -0.2780  -2.2278
H       -1.9377  0.8373  1.2457
H       -1.1467  -0.0851  2.2857
H       -1.9917  -2.0543  1.4714
H       -3.3738  -0.9969  1.4804
H       0.5574  -2.3027  1.1226
H       1.4787  -1.0962  1.6570
H       3.3094  -1.0193  -1.5738
H       3.1499  -0.0921  -0.1082
H       -0.7698  -2.2630  -0.9692
H       -1.1609  -1.0545  -1.9669
