27

Co      0.0067  0.0267  0.0215
Cl      -1.0531  1.5736  -1.1956
Cl      1.1228  1.3924  1.3205
C       2.6065  -0.6902  -0.8172
C       2.1111  -1.9210  -0.0902
C       -2.4679  -1.3033  -0.4704
C       -2.3395  -1.0928  1.0364
N       1.4109  0.0741  -1.2401
N       1.0102  -1.4551  0.8071
N       -1.1171  -1.4144  -1.1193
N       -1.3934  -0.0035  1.3826
H       2.8910  -2.3933  0.4817
H       1.7064  -2.6533  -0.7767
H       -2.9598  -0.4654  -0.9230
H       -3.0718  -2.1861  -0.6487
H       1.6341  1.0401  -1.3884
H       1.0581  -0.2655  -2.1231
H       -1.8269  0.9046  1.3639
H       -1.0252  -0.1129  2.3057
H       -1.9683  -1.9923  1.5017
H       -3.3145  -0.9018  1.4521
H       0.4298  -2.2273  1.0734
H       1.4161  -1.0906  1.6512
H       3.2191  -0.9401  -1.6685
H       3.1824  -0.0658  -0.1552
H       -0.8002  -2.3580  -1.1394
H       -1.1869  -1.0894  -2.0643
