27

Co      0.0517  0.0185  0.0334
Cl      -1.0789  1.5966  -1.2231
Cl      1.0795  1.3280  1.2789
C       2.5701  -0.6846  -0.8090
C       2.0394  -1.8302  -0.0504
C       -2.4377  -1.3077  -0.4492
C       -2.4157  -1.1207  1.0757
N       1.4945  0.1125  -1.3696
N       1.0506  -1.4954  0.8649
N       -1.0735  -1.2847  -1.0525
N       -1.4699  -0.0234  1.4261
H       2.9630  -2.3759  0.2282
H       1.4976  -2.4634  -0.7433
H       -2.8842  -0.4655  -0.9555
H       -3.0695  -2.1840  -0.5882
H       1.8304  1.0477  -1.5923
H       1.4087  -0.2975  -2.3112
H       -1.9790  0.8491  1.4240
H       -1.2029  -0.1420  2.3898
H       -2.0484  -1.9803  1.6360
H       -3.4668  -0.9705  1.3587
H       0.5629  -2.3430  1.1121
H       1.5796  -1.2889  1.7262
H       3.2769  -1.2706  -1.4706
H       3.1327  0.0310  -0.2312
H       -0.8431  -2.2625  -1.1631
H       -1.2163  -0.9638  -1.9978
