27

Co      0.0672  0.0228  0.0201
Cl      -1.0851  1.6186  -1.2257
Cl      1.0927  1.3574  1.2872
C       2.5737  -0.6811  -0.8404
C       2.1159  -1.9395  -0.0527
C       -2.4695  -1.3006  -0.4644
C       -2.3810  -1.1196  1.0667
N       1.3746  0.1152  -1.2127
N       0.9989  -1.4917  0.8367
N       -1.0850  -1.3595  -1.0566
N       -1.4120  -0.0261  1.3668
H       3.0236  -2.3709  0.3668
H       1.6436  -2.6811  -0.6853
H       -2.8733  -0.4365  -0.9774
H       -3.1460  -2.1578  -0.5891
H       1.6861  1.0611  -1.4132
H       1.2043  -0.2399  -2.1481
H       -1.9248  0.8421  1.3209
H       -1.1596  -0.0917  2.3389
H       -1.9866  -1.9863  1.5828
H       -3.3944  -0.9659  1.4239
H       0.4636  -2.2954  1.1173
H       1.5373  -1.2743  1.6896
H       3.2577  -1.0493  -1.5951
H       3.1002  0.0145  -0.2054
H       -0.8822  -2.3470  -1.0958
H       -1.2104  -1.1080  -2.0282
