27

Co      0.0587  0.0529  0.0231
Cl      -1.0520  1.5483  -1.1899
Cl      1.0931  1.3461  1.2951
C       2.5210  -0.6832  -0.8168
C       2.0251  -1.8081  -0.0944
C       -2.4829  -1.3072  -0.4385
C       -2.3930  -1.0949  1.0309
N       1.4759  0.0645  -1.2963
N       1.0324  -1.4679  0.8594
N       -1.1229  -1.2972  -1.0375
N       -1.4178  -0.0824  1.3268
H       3.0073  -2.2136  0.2377
H       1.5440  -2.5631  -0.7028
H       -3.0131  -0.5570  -1.0211
H       -3.0480  -2.2613  -0.4497
H       1.8271  0.9958  -1.5505
H       1.3303  -0.3504  -2.2165
H       -1.9107  0.8002  1.3136
H       -1.1723  -0.1906  2.2942
H       -2.0192  -1.9880  1.5186
H       -3.4031  -0.9400  1.3962
H       0.5830  -2.3315  1.1280
H       1.5904  -1.2617  1.7032
H       3.3164  -1.1552  -1.4492
H       3.0000  -0.0058  -0.1335
H       -0.9163  -2.2821  -1.1158
H       -1.2761  -1.0220  -1.9983
