27

Co      0.0092  0.0305  0.0182
Cl      -1.0932  1.6193  -1.2403
Cl      1.1179  1.3722  1.3067
C       2.6319  -0.7055  -0.8259
C       2.1398  -1.9409  -0.0748
C       -2.4992  -1.3533  -0.4460
C       -2.4248  -1.0999  1.0615
N       1.4894  0.1161  -1.3021
N       1.1258  -1.5479  0.9495
N       -1.1474  -1.3129  -1.1180
N       -1.4393  -0.0354  1.4103
H       2.9773  -2.4589  0.3655
H       1.6540  -2.6256  -0.7554
H       -3.0935  -0.5824  -0.9217
H       -2.9894  -2.3051  -0.6189
H       1.7418  1.0823  -1.3629
H       1.1890  -0.1558  -2.2199
H       -1.8543  0.8872  1.4371
H       -1.0430  -0.1942  2.3252
H       -2.1175  -2.0013  1.5802
H       -3.4180  -0.8472  1.4210
H       0.6138  -2.3538  1.2512
H       1.5662  -1.1418  1.7561
H       3.2582  -1.0098  -1.6545
H       3.2254  -0.0911  -0.1727
H       -0.7792  -2.2384  -1.2521
H       -1.2615  -0.8820  -2.0255
