27

Co      0.0086  0.0784  0.0166
Cl      -1.0623  1.5842  -1.2056
Cl      1.1341  1.4004  1.3362
C       2.6486  -0.7069  -0.8448
C       2.1235  -1.9233  -0.1462
C       -2.4822  -1.3084  -0.4514
C       -2.4032  -1.1114  1.0397
N       1.4718  -0.0151  -1.2310
N       1.0020  -1.4337  0.7788
N       -1.1153  -1.3990  -1.0613
N       -1.4491  -0.0833  1.3918
H       3.0232  -2.3132  0.3371
H       1.6762  -2.7074  -0.7424
H       -2.9462  -0.5183  -1.0416
H       -3.1203  -2.2224  -0.4602
H       1.7788  0.9244  -1.5507
H       1.2780  -0.4732  -2.1256
H       -1.9562  0.7939  1.4101
H       -1.1903  -0.2174  2.3614
H       -2.0089  -2.0083  1.4990
H       -3.4161  -0.9994  1.4034
H       0.5223  -2.2561  1.1039
H       1.5803  -1.2035  1.5992
H       3.4962  -0.9727  -1.5036
H       3.0212  -0.0289  -0.0647
H       -0.9220  -2.3944  -1.0714
H       -1.2547  -1.1913  -2.0433
