27

Co      0.0117  0.0563  0.0079
Cl      -1.0402  1.5366  -1.1820
Cl      1.1029  1.3520  1.3030
C       2.6058  -0.6665  -0.8226
C       2.0798  -1.9190  -0.0745
C       -2.4828  -1.3281  -0.4731
C       -2.3917  -1.1066  1.0530
N       1.4280  0.0969  -1.3055
N       1.0251  -1.4661  0.8763
N       -1.0980  -1.2777  -1.0482
N       -1.3908  -0.0400  1.3540
H       2.9681  -2.4504  0.2785
H       1.5330  -2.5807  -0.7382
H       -2.9726  -0.5250  -1.0128
H       -3.0683  -2.2436  -0.5693
H       1.7310  1.0417  -1.5428
H       1.3081  -0.3180  -2.2365
H       -1.8991  0.8431  1.4075
H       -1.0779  -0.1791  2.2981
H       -2.0160  -1.9800  1.5780
H       -3.3962  -0.9236  1.4196
H       0.5492  -2.2746  1.2363
H       1.6069  -1.1888  1.6728
H       3.3713  -1.0516  -1.5102
H       3.0632  0.0438  -0.1473
H       -0.8368  -2.2443  -1.0921
H       -1.2225  -1.0135  -2.0125
