27

Co      0.0560  0.0547  0.0595
Cl      -1.0896  1.6034  -1.2370
Cl      1.0928  1.3355  1.2751
C       2.6716  -0.7145  -0.8301
C       2.1347  -1.9229  -0.0927
C       -2.5245  -1.3607  -0.4501
C       -2.4405  -1.1122  1.0551
N       1.4838  0.0624  -1.2507
N       1.0696  -1.4131  0.8216
N       -1.1644  -1.3348  -1.1043
N       -1.4503  -0.0520  1.4033
H       2.8935  -2.4417  0.4621
H       1.6824  -2.6249  -0.7796
H       -3.1047  -0.5842  -0.9215
H       -3.0248  -2.3069  -0.6223
H       1.7239  1.0212  -1.4384
H       1.1080  -0.3055  -2.1170
H       -1.8653  0.8654  1.3702
H       -1.1190  -0.1734  2.3436
H       -2.1377  -2.0199  1.5690
H       -3.4263  -0.8532  1.4252
H       0.4640  -2.1720  1.0892
H       1.5010  -1.0610  1.6576
H       3.2752  -0.9983  -1.6829
H       3.2749  -0.1026  -0.1783
H       -0.8238  -2.2688  -1.2617
H       -1.2702  -0.8834  -2.0057
