27

Co      -0.0004  0.0103  -0.0209
Cl      -1.0818  1.5986  -1.1890
Cl      1.1947  1.4983  1.4108
C       2.6741  -0.7198  -0.7923
C       2.1330  -1.9341  -0.1351
C       -2.5664  -1.2698  -0.4374
C       -2.4033  -1.2016  1.0433
N       1.5222  0.0350  -1.3599
N       1.0713  -1.5063  0.8267
N       -1.1778  -1.4090  -0.9939
N       -1.5278  -0.0399  1.3133
H       2.8173  -2.4621  0.5356
H       1.7855  -2.6372  -0.8896
H       -3.0707  -0.3662  -0.7492
H       -3.0858  -2.1247  -0.8693
H       1.6768  1.0282  -1.3997
H       1.0551  -0.2497  -2.2169
H       -1.9415  0.8573  1.1166
H       -1.1143  0.0067  2.2270
H       -1.9621  -2.1323  1.3872
H       -3.3222  -1.0428  1.5926
H       0.4583  -2.2652  1.0707
H       1.3396  -0.9940  1.6634
H       3.2762  -0.8667  -1.6859
H       3.2523  -0.1539  -0.0755
H       -0.7281  -2.3109  -0.8528
H       -1.1247  -1.1492  -1.9649
