27

Co      0.0728  0.0340  0.0036
Cl      -1.0984  1.6177  -1.2216
Cl      1.1456  1.4229  1.3491
C       2.5703  -0.7284  -0.7752
C       2.1076  -1.8887  -0.0758
C       -2.5379  -1.3255  -0.4375
C       -2.4301  -1.1581  1.0592
N       1.4756  0.0774  -1.2874
N       1.1304  -1.5212  0.8325
N       -1.1987  -1.4207  -1.1099
N       -1.5218  -0.0291  1.3943
H       2.9580  -2.3846  0.3722
H       1.6825  -2.5776  -0.7888
H       -3.0174  -0.4540  -0.8442
H       -3.1590  -2.1821  -0.6714
H       1.7723  1.0276  -1.4523
H       1.1583  -0.2734  -2.1718
H       -1.9763  0.8595  1.3169
H       -1.1863  -0.1031  2.3351
H       -2.0536  -2.0458  1.5435
H       -3.4318  -0.9876  1.4363
H       0.5542  -2.3161  1.0566
H       1.5188  -1.1709  1.6919
H       3.1645  -1.1147  -1.5920
H       3.2093  -0.1027  -0.1666
H       -0.8911  -2.3720  -1.1630
H       -1.3021  -1.0857  -2.0535
