27

Co      0.0012  0.0376  0.0109
Cl      -1.0755  1.6079  -1.2312
Cl      1.1102  1.3799  1.3104
C       2.5754  -0.7337  -0.8297
C       2.0938  -1.8309  -0.1035
C       -2.4094  -1.2867  -0.4052
C       -2.4276  -1.1030  1.0588
N       1.5608  0.0512  -1.3402
N       1.0531  -1.5603  0.8416
N       -1.0638  -1.3177  -1.0348
N       -1.5003  -0.0771  1.4593
H       2.9987  -2.1766  0.4052
H       1.7552  -2.6468  -0.7373
H       -2.9786  -0.5263  -0.9143
H       -2.9032  -2.2392  -0.5691
H       1.8524  1.0036  -1.4246
H       1.2660  -0.2337  -2.2550
H       -1.9133  0.8371  1.4569
H       -1.1442  -0.2310  2.3869
H       -2.1244  -2.0252  1.5412
H       -3.4549  -0.9138  1.3647
H       0.5532  -2.4336  0.9998
H       1.4162  -1.2556  1.7400
H       3.2500  -1.1345  -1.5798
H       3.1631  -0.1332  -0.1656
H       -0.7181  -2.2509  -1.0814
H       -1.1706  -0.9878  -1.9761
