27

Co      -0.0110  -0.0636  -0.0200
Cl      -1.0965  1.6340  -1.2036
Cl      1.2093  1.5303  1.4291
C       2.6759  -0.7083  -0.8105
C       2.1279  -1.9328  -0.1224
C       -2.5558  -1.2638  -0.4466
C       -2.3936  -1.1957  1.0539
N       1.4798  0.0337  -1.3016
N       1.0227  -1.4474  0.7745
N       -1.1416  -1.3426  -0.9473
N       -1.4781  -0.0480  1.2447
H       2.8772  -2.4505  0.4657
H       1.7180  -2.6355  -0.8363
H       -2.9962  -0.3572  -0.8314
H       -3.1332  -2.1138  -0.7909
H       1.6713  1.0230  -1.3570
H       1.2267  -0.2504  -2.2251
H       -1.9510  0.8212  1.0160
H       -1.1684  0.0593  2.2032
H       -1.9228  -2.0914  1.4461
H       -3.3275  -1.0568  1.5761
H       0.5021  -2.2225  1.1338
H       1.4400  -0.9957  1.5678
H       3.3449  -0.9519  -1.6153
H       3.1940  -0.0696  -0.1131
H       -0.8050  -2.2901  -0.8467
H       -1.1330  -1.1295  -1.9347
