27

Co      0.0463  -0.0111  0.0281
Cl      -1.0918  1.6296  -1.2324
Cl      1.0994  1.3728  1.3006
C       2.5497  -0.6948  -0.8279
C       2.0655  -1.8409  -0.0328
C       -2.4377  -1.2886  -0.4529
C       -2.3831  -1.1235  1.0702
N       1.4705  0.1341  -1.3353
N       1.0248  -1.5469  0.8520
N       -1.0739  -1.3399  -1.0519
N       -1.4526  -0.0091  1.4006
H       3.0144  -2.3129  0.2835
H       1.5829  -2.5335  -0.7045
H       -2.8353  -0.4132  -0.9488
H       -3.1243  -2.1334  -0.5996
H       1.8112  1.0747  -1.4861
H       1.3831  -0.2028  -2.2983
H       -1.9682  0.8549  1.3682
H       -1.1908  -0.0940  2.3677
H       -1.9827  -1.9777  1.6078
H       -3.4234  -0.9972  1.3834
H       0.5328  -2.4122  1.0495
H       1.5157  -1.3657  1.7494
H       3.2054  -1.2888  -1.5251
H       3.1598  0.0172  -0.2835
H       -0.8652  -2.3268  -1.1109
H       -1.1977  -1.0689  -2.0162
