27

Co      -0.0110  -0.0557  -0.0195
Cl      -1.1048  1.6535  -1.2231
Cl      1.2233  1.5554  1.4458
C       2.7676  -0.6957  -0.8242
C       2.1805  -2.0408  -0.0994
C       -2.5951  -1.3323  -0.4736
C       -2.4533  -1.2191  1.0816
N       1.4429  0.0564  -1.3312
N       0.9926  -1.4470  0.7777
N       -1.1474  -1.3277  -0.9446
N       -1.4562  -0.0563  1.2710
H       2.8292  -2.6771  0.5272
H       1.7178  -2.6566  -0.8706
H       -3.0242  -0.4011  -0.8374
H       -3.1562  -2.1713  -0.8922
H       1.5900  1.0545  -1.4146
H       1.1913  -0.2631  -2.2463
H       -1.9174  0.8262  1.1061
H       -1.1015  0.0044  2.2163
H       -2.0501  -2.1055  1.5489
H       -3.3813  -0.9795  1.5750
H       0.3933  -2.1649  1.1531
H       1.4137  -0.9901  1.5682
H       3.4104  -0.8704  -1.6755
H       3.2662  -0.0174  -0.1417
H       -0.7574  -2.2563  -0.8656
H       -1.1230  -1.0817  -1.9212
