27

Co      -0.0170  0.0008  0.0117
Cl      -1.1111  1.6265  -1.2160
Cl      1.1735  1.4486  1.3712
C       2.7227  -0.7233  -0.8267
C       2.1516  -1.9347  -0.1140
C       -2.6006  -1.2953  -0.4491
C       -2.4161  -1.1945  1.0455
N       1.5722  0.0677  -1.3593
N       1.1350  -1.5069  0.9022
N       -1.1975  -1.3052  -0.9778
N       -1.5056  -0.0400  1.2651
H       2.9367  -2.5230  0.3472
H       1.6493  -2.5775  -0.8297
H       -3.1108  -0.4346  -0.8507
H       -3.1251  -2.1874  -0.7497
H       1.8010  1.0481  -1.4073
H       1.3268  -0.2120  -2.2850
H       -1.9940  0.8298  1.1122
H       -1.1672  -0.0015  2.2103
H       -1.9295  -2.0899  1.4328
H       -3.3511  -1.0695  1.5818
H       0.6592  -2.3120  1.2684
H       1.5922  -1.0560  1.6743
H       3.3944  -1.0351  -1.6153
H       3.2729  -0.0958  -0.1451
H       -0.8316  -2.2416  -0.9249
H       -1.2006  -1.0359  -1.9438
