27

Co      0.0276  0.0587  -0.0097
Cl      -1.0517  1.5365  -1.1780
Cl      1.1184  1.3730  1.3119
C       2.6251  -0.7120  -0.8407
C       2.1380  -1.9320  -0.0696
C       -2.4901  -1.2932  -0.4437
C       -2.4003  -1.1337  1.0713
N       1.4708  0.1189  -1.2772
N       1.0635  -1.4986  0.8669
N       -1.1451  -1.3715  -1.1263
N       -1.5149  0.0114  1.4338
H       2.9566  -2.3864  0.4626
H       1.7192  -2.6746  -0.7339
H       -2.9849  -0.4355  -0.8603
H       -3.0886  -2.1623  -0.6715
H       1.7400  1.0800  -1.3641
H       1.1394  -0.1607  -2.1841
H       -1.9834  0.8953  1.3762
H       -1.1571  -0.0673  2.3635
H       -1.9917  -2.0186  1.5334
H       -3.4050  -1.0018  1.4580
H       0.4882  -2.2818  1.1242
H       1.4626  -1.1236  1.7081
H       3.2221  -1.0071  -1.6918
H       3.2371  -0.0961  -0.1984
H       -0.8171  -2.3138  -1.1878
H       -1.2518  -1.0178  -2.0633
