27

Co      0.0117  0.0655  0.0074
Cl      -1.0713  1.5706  -1.2019
Cl      1.1331  1.3839  1.3304
C       2.6651  -0.7026  -0.7936
C       2.1213  -1.9433  -0.1139
C       -2.5528  -1.3437  -0.4513
C       -2.4401  -1.1460  1.0491
N       1.4971  0.0521  -1.3207
N       1.1208  -1.4675  0.8829
N       -1.1701  -1.2941  -1.0382
N       -1.4620  -0.0639  1.3451
H       2.9054  -2.5219  0.3529
H       1.6201  -2.5861  -0.8278
H       -3.1276  -0.5477  -0.9028
H       -3.0317  -2.2824  -0.6785
H       1.7379  1.0153  -1.4985
H       1.1937  -0.3295  -2.2017
H       -1.9071  0.8419  1.3275
H       -1.0836  -0.1660  2.2677
H       -2.0833  -2.0551  1.5178
H       -3.4055  -0.9212  1.4805
H       0.5944  -2.2384  1.2467
H       1.5904  -1.0339  1.6553
H       3.3643  -0.9516  -1.5819
H       3.1728  -0.0747  -0.0798
H       -0.7865  -2.2168  -1.0635
H       -1.2369  -0.9622  -1.9800
