27

Co      -0.0664  -0.0075  0.0048
Cl      -1.0832  1.5918  -1.2022
Cl      1.1705  1.4452  1.3604
C       2.7904  -0.7125  -0.8525
C       2.2147  -2.0368  -0.0716
C       -2.5982  -1.3334  -0.4827
C       -2.4134  -1.1813  1.0611
N       1.4953  0.1172  -1.3155
N       1.0836  -1.4752  0.8739
N       -1.1609  -1.2215  -0.9634
N       -1.4169  -0.0173  1.2495
H       2.9023  -2.6805  0.4840
H       1.7039  -2.6549  -0.8129
H       -3.1296  -0.4755  -0.8703
H       -3.0661  -2.2407  -0.8464
H       1.6790  1.1136  -1.2933
H       1.2614  -0.1043  -2.2667
H       -1.8918  0.8693  1.1745
H       -1.0082  -0.0168  2.1671
H       -1.9777  -2.0644  1.5161
H       -3.3274  -0.9508  1.5989
H       0.5676  -2.2206  1.3180
H       1.5412  -0.9550  1.6149
H       3.3676  -0.9515  -1.7443
H       3.3805  -0.0638  -0.2185
H       -0.7129  -2.1253  -0.9102
H       -1.1406  -0.9285  -1.9221
