27

Co      -0.0141  -0.0704  -0.0025
Cl      -1.1030  1.6509  -1.2267
Cl      1.1788  1.4923  1.3858
C       2.6666  -0.7211  -0.8410
C       2.1531  -1.9315  -0.0919
C       -2.5169  -1.2715  -0.4400
C       -2.3954  -1.1667  1.0620
N       1.4776  0.0695  -1.2676
N       1.0087  -1.4745  0.7773
N       -1.1067  -1.3043  -0.9541
N       -1.4523  -0.0464  1.2756
H       2.9240  -2.3801  0.5274
H       1.7856  -2.6935  -0.7737
H       -2.9940  -0.4029  -0.8504
H       -3.0535  -2.1543  -0.7626
H       1.6825  1.0588  -1.2477
H       1.2146  -0.1361  -2.2145
H       -1.9012  0.8365  1.0808
H       -1.1339  0.0219  2.2288
H       -1.9772  -2.0640  1.4950
H       -3.3424  -0.9815  1.5375
H       0.4822  -2.2661  1.0886
H       1.3968  -1.0483  1.6030
H       3.2621  -1.0058  -1.6922
H       3.2650  -0.0970  -0.1974
H       -0.7536  -2.2419  -0.9096
H       -1.1177  -1.0358  -1.9225
