27

Co      -0.0053  -0.0277  -0.0019
Cl      -1.1186  1.6583  -1.2414
Cl      1.1970  1.5092  1.3959
C       2.7672  -0.7292  -0.8746
C       2.2435  -2.0566  -0.0508
C       -2.6058  -1.3570  -0.4692
C       -2.4564  -1.1934  1.0856
N       1.4705  0.1316  -1.2850
N       1.0498  -1.5285  0.8503
N       -1.1920  -1.3399  -1.0324
N       -1.4681  -0.0243  1.3183
H       2.9571  -2.6124  0.5546
H       1.7996  -2.7379  -0.7680
H       -3.0809  -0.4626  -0.8513
H       -3.1627  -2.2213  -0.8199
H       1.6723  1.1239  -1.2578
H       1.1939  -0.0642  -2.2312
H       -1.9274  0.8617  1.2105
H       -1.0943  -0.0255  2.2543
H       -2.0619  -2.0692  1.5776
H       -3.4008  -0.9533  1.5503
H       0.4554  -2.2777  1.1640
H       1.4467  -1.0997  1.6720
H       3.2970  -0.9727  -1.7979
H       3.4022  -0.0798  -0.2737
H       -0.8036  -2.2668  -1.0520
H       -1.2191  -1.0042  -1.9788
