27

Co      0.0004  -0.0043  0.0179
Cl      -1.0859  1.6313  -1.2451
Cl      1.1137  1.3803  1.3132
C       2.6276  -0.6803  -0.8287
C       2.1066  -1.9328  -0.0748
C       -2.4495  -1.3454  -0.4575
C       -2.4281  -1.0967  1.0746
N       1.4416  0.0858  -1.2916
N       1.0320  -1.4844  0.8661
N       -1.0588  -1.2442  -1.0325
N       -1.3879  -0.0658  1.3848
H       2.9913  -2.4533  0.2953
H       1.5717  -2.6022  -0.7364
H       -2.9620  -0.5667  -1.0176
H       -2.9939  -2.2864  -0.5631
H       1.7251  1.0396  -1.4649
H       1.3466  -0.2767  -2.2470
H       -1.8580  0.8353  1.4337
H       -1.0792  -0.2152  2.3355
H       -2.1284  -1.9739  1.6548
H       -3.4497  -0.8480  1.3708
H       0.5772  -2.3028  1.2360
H       1.6080  -1.1891  1.6603
H       3.3749  -1.0702  -1.5274
H       3.1014  0.0256  -0.1660
H       -0.7860  -2.2069  -1.1467
H       -1.1999  -0.9157  -1.9739
