27

Co      0.0463  0.0020  0.0184
Cl      -1.1055  1.6501  -1.2358
Cl      1.1097  1.3797  1.3143
C       2.5970  -0.6761  -0.8451
C       2.0706  -1.8697  -0.1330
C       -2.4467  -1.2356  -0.4217
C       -2.3743  -1.1274  1.0530
N       1.5145  0.0659  -1.3448
N       1.0221  -1.5375  0.9387
N       -1.0778  -1.3950  -1.0354
N       -1.5013  -0.0455  1.3921
H       2.9378  -2.2908  0.3508
H       1.6404  -2.6327  -0.7693
H       -2.9226  -0.3948  -0.8884
H       -3.0348  -2.1203  -0.6193
H       1.7357  1.0363  -1.4451
H       1.1873  -0.2450  -2.2425
H       -1.9503  0.8399  1.2236
H       -1.2181  -0.0427  2.3536
H       -1.9468  -2.0472  1.4337
H       -3.3644  -1.0389  1.4789
H       0.5087  -2.3820  1.1490
H       1.4488  -1.2295  1.7982
H       3.3617  -0.9249  -1.5780
H       3.0611  -0.0713  -0.0816
H       -0.8086  -2.3597  -1.0411
H       -1.1363  -1.0936  -1.9884
