27

Co      -0.0252  -0.0598  0.0078
Cl      -1.1365  1.6838  -1.2525
Cl      1.2045  1.5081  1.4111
C       2.7321  -0.7323  -0.8070
C       2.1521  -1.9270  -0.1354
C       -2.5891  -1.3129  -0.4231
C       -2.4495  -1.1862  1.0533
N       1.5993  0.0460  -1.3883
N       1.1443  -1.5141  0.8993
N       -1.1955  -1.3007  -0.9837
N       -1.5148  -0.0674  1.2878
H       2.8351  -2.5244  0.4684
H       1.7295  -2.5788  -0.8947
H       -3.2025  -0.4887  -0.7664
H       -2.9849  -2.2502  -0.8340
H       1.7329  1.0536  -1.3123
H       1.1914  -0.1562  -2.2868
H       -1.8879  0.8522  1.0819
H       -1.1019  -0.0209  2.2063
H       -2.0706  -2.1201  1.4473
H       -3.3636  -0.9440  1.5771
H       0.6137  -2.2956  1.2210
H       1.4535  -0.9300  1.6813
H       3.3227  -0.9355  -1.6954
H       3.3437  -0.1785  -0.1105
H       -0.7107  -2.1910  -0.9910
H       -1.1639  -0.8929  -1.9026
