27

Co      0.0276  0.0744  -0.0135
Cl      -1.0737  1.5766  -1.2009
Cl      1.1425  1.4049  1.3423
C       2.5839  -0.7489  -0.7996
C       2.1209  -1.8711  -0.1256
C       -2.4957  -1.2910  -0.4090
C       -2.4317  -1.1376  1.0513
N       1.5367  0.0230  -1.2669
N       1.1333  -1.5144  0.8280
N       -1.1684  -1.3916  -1.0939
N       -1.5586  -0.0582  1.4273
H       3.0209  -2.2428  0.3729
H       1.7507  -2.6659  -0.7599
H       -3.0352  -0.4892  -0.8782
H       -3.0592  -2.2037  -0.5634
H       1.8513  0.9697  -1.4229
H       1.2053  -0.3073  -2.1540
H       -2.0127  0.8321  1.3751
H       -1.2226  -0.1619  2.3658
H       -2.0467  -2.0486  1.4841
H       -3.4467  -1.0209  1.4176
H       0.6282  -2.3445  1.0840
H       1.5428  -1.1429  1.6636
H       3.2730  -1.0608  -1.5678
H       3.1425  -0.1603  -0.0923
H       -0.8595  -2.3429  -1.1266
H       -1.2970  -1.0879  -2.0455
