27

Co      -0.0258  -0.0389  0.0184
Cl      -1.1075  1.6314  -1.2338
Cl      1.1789  1.4749  1.3778
C       2.8184  -0.7145  -0.8688
C       2.1999  -2.0149  -0.0727
C       -2.6122  -1.3641  -0.4646
C       -2.4871  -1.1994  1.0836
N       1.5318  0.1033  -1.3634
N       1.0356  -1.4469  0.8413
N       -1.1620  -1.1943  -0.9331
N       -1.4515  -0.0638  1.2676
H       2.8576  -2.6662  0.5194
H       1.6999  -2.6309  -0.8223
H       -3.1643  -0.5239  -0.8615
H       -3.0371  -2.2926  -0.8513
H       1.7000  1.1013  -1.3565
H       1.2989  -0.1389  -2.3080
H       -1.8973  0.8313  1.1412
H       -1.0864  -0.0409  2.2059
H       -2.1209  -2.0885  1.5848
H       -3.4135  -0.9068  1.5660
H       0.4715  -2.1904  1.2163
H       1.4667  -0.9821  1.6246
H       3.4035  -0.9947  -1.7393
H       3.4087  -0.0548  -0.2461
H       -0.7174  -2.0997  -0.9697
H       -1.1566  -0.8259  -1.8670
