27

Co      0.0086  0.0563  0.0219
Cl      -1.0605  1.5740  -1.2085
Cl      1.0826  1.3208  1.2734
C       2.6136  -0.6759  -0.8258
C       2.1016  -1.9315  -0.0714
C       -2.4610  -1.3188  -0.4700
C       -2.3902  -1.1051  1.0577
N       1.4327  0.0985  -1.2853
N       1.0453  -1.4864  0.8825
N       -1.0700  -1.2668  -1.0311
N       -1.3923  -0.0384  1.3712
H       2.9977  -2.4520  0.2785
H       1.5595  -2.6009  -0.7304
H       -2.9429  -0.5125  -1.0112
H       -3.0434  -2.2327  -0.5786
H       1.7388  1.0432  -1.5054
H       1.3096  -0.2962  -2.2225
H       -1.9006  0.8447  1.4278
H       -1.0811  -0.1822  2.3168
H       -2.0191  -1.9800  1.5858
H       -3.4009  -0.9236  1.4118
H       0.5773  -2.3010  1.2426
H       1.6287  -1.2107  1.6806
H       3.3604  -1.0610  -1.5289
H       3.0897  0.0267  -0.1598
H       -0.8025  -2.2302  -1.0625
H       -1.1867  -1.0088  -1.9969
