27

Co      -0.0166  -0.0092  0.0315
Cl      -1.0573  1.5821  -1.1998
Cl      1.1270  1.4054  1.3290
C       2.6373  -0.6832  -0.8377
C       2.0887  -1.8850  -0.0896
C       -2.4595  -1.2913  -0.4671
C       -2.3424  -1.0992  1.0387
N       1.4702  0.0844  -1.3234
N       0.9800  -1.4619  0.8269
N       -1.0924  -1.3608  -1.0684
N       -1.3939  -0.0090  1.3628
H       2.8551  -2.3915  0.4674
H       1.6674  -2.5943  -0.7897
H       -2.9624  -0.4598  -0.9191
H       -3.0256  -2.1871  -0.6768
H       1.6719  1.0592  -1.4154
H       1.1671  -0.2282  -2.2287
H       -1.8253  0.8973  1.3149
H       -1.0323  -0.0876  2.2892
H       -1.9616  -1.9993  1.4980
H       -3.3108  -0.9090  1.4679
H       0.4257  -2.2608  1.0704
H       1.3747  -1.1087  1.6834
H       3.2638  -1.0049  -1.6546
H       3.2159  -0.0474  -0.1922
H       -0.7582  -2.2994  -1.0884
H       -1.1328  -1.0260  -2.0101
