27

Co      0.0502  0.0040  0.0438
Cl      -1.1139  1.6702  -1.2630
Cl      1.1166  1.3792  1.3198
C       2.5854  -0.7001  -0.8011
C       2.0532  -1.8311  -0.1324
C       -2.4371  -1.3108  -0.4312
C       -2.4156  -1.0933  1.0569
N       1.5073  0.0010  -1.2817
N       1.0716  -1.4445  0.8244
N       -1.1052  -1.3912  -1.1140
N       -1.4830  -0.0664  1.4454
H       2.9926  -2.3017  0.2021
H       1.5371  -2.5273  -0.7716
H       -2.9068  -0.5184  -1.0056
H       -3.0924  -2.2171  -0.4346
H       1.8239  0.9365  -1.5850
H       1.3600  -0.4630  -2.1874
H       -1.9624  0.8197  1.4199
H       -1.2612  -0.1953  2.4310
H       -2.0665  -1.9780  1.5778
H       -3.4713  -0.9681  1.3253
H       0.6248  -2.2958  1.1269
H       1.6500  -1.2194  1.6478
H       3.4072  -1.1330  -1.4205
H       3.0269  -0.0206  -0.0890
H       -0.9504  -2.4000  -1.2791
H       -1.2928  -1.0438  -2.0471
