27

Co      -0.0060  -0.0014  0.0014
Cl      -1.0859  1.6130  -1.2096
Cl      1.1617  1.4578  1.3626
C       2.6694  -0.7305  -0.8381
C       2.1677  -1.9469  -0.0913
C       -2.5422  -1.2866  -0.4469
C       -2.4048  -1.1751  1.0506
N       1.4798  0.0627  -1.2640
N       1.0248  -1.4876  0.7742
N       -1.1289  -1.3158  -0.9471
N       -1.4540  -0.0580  1.2786
H       2.9470  -2.3844  0.5273
H       1.8096  -2.7173  -0.7705
H       -3.0278  -0.4267  -0.8663
H       -3.0723  -2.1757  -0.7559
H       1.7130  1.0402  -1.3104
H       1.1859  -0.1889  -2.1872
H       -1.9160  0.8236  1.1416
H       -1.1162  -0.0369  2.2213
H       -1.9848  -2.0784  1.4733
H       -3.3465  -0.9903  1.5422
H       0.4740  -2.2754  1.0591
H       1.4119  -1.0921  1.6149
H       3.2698  -1.0049  -1.6910
H       3.2643  -0.1070  -0.1884
H       -0.7590  -2.2457  -0.8504
H       -1.1323  -1.0955  -1.9316
