27

Co      0.0609  -0.0048  0.0180
Cl      -1.0977  1.6466  -1.2494
Cl      1.1109  1.3930  1.3124
C       2.6116  -0.6929  -0.8489
C       2.1227  -1.9372  -0.0597
C       -2.4580  -1.3255  -0.4483
C       -2.4410  -1.1259  1.0892
N       1.4111  0.0915  -1.2430
N       0.9764  -1.4733  0.7982
N       -1.0666  -1.3167  -1.0341
N       -1.4388  -0.0608  1.4025
H       3.0043  -2.3722  0.3983
H       1.6649  -2.6786  -0.6986
H       -2.8923  -0.4869  -0.9764
H       -3.0837  -2.2097  -0.5901
H       1.7091  1.0410  -1.4334
H       1.2634  -0.2627  -2.1855
H       -1.9245  0.8199  1.3581
H       -1.1909  -0.1413  2.3796
H       -2.1161  -1.9968  1.6555
H       -3.4726  -0.9160  1.3793
H       0.4341  -2.2770  1.0685
H       1.5000  -1.2564  1.6601
H       3.3053  -1.0788  -1.5881
H       3.1304  0.0097  -0.2153
H       -0.8436  -2.2980  -1.1378
H       -1.2108  -1.0113  -1.9868
