27

Co      -0.0092  -0.0221  -0.0182
Cl      -1.0919  1.6241  -1.2102
Cl      1.2104  1.5315  1.4311
C       2.7165  -0.7296  -0.8160
C       2.1492  -1.9458  -0.1289
C       -2.5697  -1.3037  -0.4373
C       -2.4629  -1.2104  1.0650
N       1.5185  0.0032  -1.3282
N       1.0162  -1.4420  0.7329
N       -1.1454  -1.3113  -0.9178
N       -1.5066  -0.0943  1.2835
H       2.8810  -2.4560  0.4971
H       1.7634  -2.6569  -0.8464
H       -3.0490  -0.4314  -0.8463
H       -3.0897  -2.1871  -0.7852
H       1.7248  0.9842  -1.4399
H       1.2571  -0.3260  -2.2352
H       -1.9654  0.7861  1.1140
H       -1.1820  -0.0491  2.2364
H       -2.0598  -2.1163  1.4971
H       -3.4097  -1.0158  1.5362
H       0.4644  -2.2134  1.0553
H       1.4179  -1.0216  1.5502
H       3.4002  -0.9805  -1.6070
H       3.2235  -0.0844  -0.1140
H       -0.7718  -2.2449  -0.8295
H       -1.1480  -1.0925  -1.9024
