27

Co      0.0633  -0.0009  0.0092
Cl      -1.1055  1.6501  -1.2358
Cl      1.1097  1.3773  1.3143
C       2.5325  -0.7041  -0.7925
C       2.0572  -1.8289  -0.1234
C       -2.4211  -1.2307  -0.4086
C       -2.3782  -1.1274  1.0588
N       1.4950  0.0427  -1.2890
N       1.0731  -1.5127  0.8537
N       -1.0816  -1.4140  -1.0664
N       -1.5362  -0.0329  1.4280
H       2.9523  -2.2248  0.3452
H       1.6676  -2.5978  -0.7756
H       -2.8776  -0.3700  -0.8516
H       -3.0493  -2.0903  -0.6116
H       1.7620  0.9991  -1.4276
H       1.1696  -0.2890  -2.1799
H       -1.9852  0.8501  1.2633
H       -1.2589  -0.0459  2.3910
H       -1.9691  -2.0365  1.4744
H       -3.3993  -1.0457  1.4229
H       0.5553  -2.3508  1.0671
H       1.4758  -1.1857  1.7160
H       3.2354  -1.0315  -1.5415
H       3.0726  -0.1066  -0.0862
H       -0.8260  -2.3830  -1.0917
H       -1.1774  -1.1080  -2.0180
