27

Co      -0.0004  -0.0030  -0.0141
Cl      -1.0771  1.5721  -1.1825
Cl      1.1904  1.4915  1.3941
C       2.7620  -0.7178  -0.8543
C       2.1996  -2.0147  -0.0729
C       -2.6137  -1.3137  -0.4605
C       -2.4282  -1.2096  1.0718
N       1.5004  0.1294  -1.3490
N       1.0403  -1.4896  0.8551
N       -1.2106  -1.3598  -1.0358
N       -1.5142  0.0057  1.3156
H       2.8027  -2.6053  0.6570
H       1.8142  -2.6890  -0.8394
H       -3.1302  -0.3935  -0.7325
H       -3.1147  -2.1644  -0.9492
H       1.6302  1.1371  -1.2791
H       1.0336  -0.0586  -2.2382
H       -1.9324  0.9013  1.1185
H       -1.0802  0.0665  2.2238
H       -1.9939  -2.1137  1.4717
H       -3.3364  -0.9959  1.6269
H       0.3609  -2.2017  1.1108
H       1.2959  -0.9550  1.6906
H       3.2325  -0.8663  -1.8581
H       3.4420  -0.1368  -0.2269
H       -0.7226  -2.2474  -0.9962
H       -1.1644  -0.9887  -1.9718
