27

Co      0.0088  0.0418  -0.0091
Cl      -1.0693  1.5925  -1.1973
Cl      1.1355  1.4062  1.3433
C       2.5779  -0.6787  -0.8257
C       2.0830  -1.8959  -0.1377
C       -2.4685  -1.2560  -0.4373
C       -2.3494  -1.1109  1.0314
N       1.4845  0.0588  -1.3200
N       1.0526  -1.5567  0.9456
N       -1.1158  -1.4220  -1.0773
N       -1.4623  -0.0395  1.3736
H       2.9696  -2.3092  0.3321
H       1.6542  -2.6614  -0.7705
H       -2.9704  -0.4367  -0.9210
H       -3.0581  -2.1545  -0.5828
H       1.7236  1.0247  -1.4416
H       1.1566  -0.2656  -2.2125
H       -1.9154  0.8540  1.3035
H       -1.1173  -0.1073  2.3072
H       -1.9173  -2.0313  1.4045
H       -3.3265  -1.0161  1.4834
H       0.5684  -2.3969  1.2083
H       1.4959  -1.2028  1.7724
H       3.3590  -0.8807  -1.5616
H       3.0176  -0.0742  -0.0388
H       -0.8273  -2.3798  -1.0362
H       -1.1839  -1.1675  -2.0452
