27

Co      -0.0556  -0.0524  -0.0376
Cl      -1.1045  1.6382  -1.2147
Cl      1.2415  1.5637  1.4555
C       2.7279  -0.7551  -0.8084
C       2.1895  -1.9581  -0.1353
C       -2.5685  -1.2906  -0.4209
C       -2.4365  -1.1935  1.0632
N       1.5641  0.0306  -1.3247
N       1.1194  -1.5022  0.8134
N       -1.1921  -1.3528  -1.0182
N       -1.5485  -0.0405  1.3236
H       2.8694  -2.4731  0.5635
H       1.8472  -2.6780  -0.8725
H       -3.1311  -0.4253  -0.7424
H       -3.0331  -2.1844  -0.8438
H       1.7130  1.0377  -1.2321
H       1.1497  -0.1405  -2.2314
H       -1.9410  0.8666  1.1271
H       -1.1164  0.0052  2.2356
H       -2.0277  -2.1155  1.4481
H       -3.3662  -1.0003  1.5699
H       0.5758  -2.2667  1.1530
H       1.3981  -0.8854  1.5949
H       3.2875  -0.9072  -1.7334
H       3.3500  -0.2047  -0.1121
H       -0.7165  -2.2491  -0.9764
H       -1.1793  -1.0049  -1.9586
