27

Co      0.0474  -0.0123  0.0346
Cl      -1.0918  1.6084  -1.2080
Cl      1.1335  1.4039  1.3318
C       2.6649  -0.6959  -0.8271
C       2.1034  -1.8991  -0.1070
C       -2.5241  -1.2752  -0.4553
C       -2.3714  -1.1503  1.0528
N       1.4761  0.0634  -1.2749
N       1.0297  -1.3968  0.8064
N       -1.1590  -1.4077  -1.0856
N       -1.4913  0.0040  1.3493
H       2.8455  -2.4393  0.4538
H       1.6491  -2.5846  -0.8111
H       -2.9713  -0.3808  -0.8503
H       -3.1582  -2.1175  -0.7076
H       1.6830  1.0368  -1.4172
H       1.1370  -0.2811  -2.1577
H       -1.9596  0.8782  1.1533
H       -1.2116  0.0461  2.3145
H       -1.9133  -2.0385  1.4701
H       -3.3404  -1.0389  1.5162
H       0.4411  -2.1568  1.0952
H       1.4542  -1.0227  1.6329
H       3.2896  -0.9755  -1.6591
H       3.2389  -0.0715  -0.1616
H       -0.8809  -2.3712  -1.1385
H       -1.2116  -1.0522  -2.0227
