27

Co      0.0474  -0.0166  0.0336
Cl      -1.0894  1.6236  -1.2335
Cl      1.0899  1.3494  1.2887
C       2.5965  -0.6612  -0.8138
C       2.0610  -1.8875  -0.0842
C       -2.4611  -1.3005  -0.4475
C       -2.3900  -1.1084  1.0600
N       1.4486  0.1060  -1.3292
N       1.0264  -1.4726  0.9051
N       -1.0764  -1.2891  -1.0347
N       -1.4121  -0.0386  1.3596
H       2.8539  -2.4321  0.3869
H       1.5781  -2.5556  -0.7887
H       -2.9974  -0.4868  -0.8968
H       -2.9671  -2.2203  -0.6891
H       1.6520  1.0788  -1.4313
H       1.1443  -0.2188  -2.2310
H       -1.8282  0.8736  1.2601
H       -1.0822  -0.0843  2.2997
H       -2.0571  -2.0156  1.5491
H       -3.3684  -0.8707  1.4550
H       0.4736  -2.2618  1.1784
H       1.4584  -1.1075  1.7351
H       3.2547  -0.9667  -1.6138
H       3.1473  -0.0312  -0.1456
H       -0.7359  -2.2227  -1.1211
H       -1.1378  -0.8933  -1.9559
