27

Co      -0.0498  0.0044  -0.0248
Cl      -1.0713  1.5773  -1.1917
Cl      1.2117  1.5199  1.4137
C       2.7931  -0.7394  -0.8618
C       2.2500  -2.0650  -0.0683
C       -2.6169  -1.3586  -0.4730
C       -2.4614  -1.2004  1.0766
N       1.4713  0.0921  -1.2722
N       1.0360  -1.4647  0.7744
N       -1.1882  -1.2781  -0.9844
N       -1.4556  -0.0411  1.2844
H       2.9278  -2.6191  0.5998
H       1.8323  -2.7576  -0.7895
H       -3.1267  -0.4881  -0.8607
H       -3.1170  -2.2500  -0.8379
H       1.6738  1.0833  -1.2784
H       1.2065  -0.1337  -2.2125
H       -1.9230  0.8457  1.2160
H       -1.0502  -0.0571  2.2056
H       -2.0653  -2.0818  1.5602
H       -3.3907  -0.9462  1.5672
H       0.4547  -2.1912  1.1610
H       1.4431  -0.9777  1.5594
H       3.3429  -0.9453  -1.7815
H       3.3961  -0.0874  -0.2350
H       -0.7506  -2.1874  -0.9383
H       -1.1994  -1.0013  -1.9505
