27

Co      0.0082  0.0671  0.0005
Cl      -1.0539  1.5606  -1.1820
Cl      1.1202  1.3798  1.3237
C       2.5515  -0.7071  -0.8061
C       2.0712  -1.8484  -0.1137
C       -2.4745  -1.2632  -0.4439
C       -2.3653  -1.1280  1.0275
N       1.4863  0.0310  -1.2819
N       1.0572  -1.5058  0.8220
N       -1.1032  -1.3439  -0.9969
N       -1.4514  -0.0636  1.3272
H       3.0542  -2.2382  0.2421
H       1.6228  -2.6134  -0.7300
H       -2.9210  -0.4448  -0.9944
H       -3.1114  -2.1574  -0.5114
H       1.8431  0.9642  -1.5338
H       1.3621  -0.3787  -2.2092
H       -1.9877  0.7951  1.3152
H       -1.1840  -0.1503  2.2893
H       -1.9087  -2.0156  1.4570
H       -3.3710  -1.0619  1.4362
H       0.6381  -2.3751  1.1273
H       1.6122  -1.2663  1.6506
H       3.3615  -1.1355  -1.4380
H       3.0030  -0.0267  -0.0999
H       -0.8904  -2.3313  -0.9113
H       -1.2084  -1.2184  -2.0086
