27

Co      -0.0474  0.0166  -0.0336
Cl      -1.0874  1.6003  -1.1976
Cl      1.2244  1.5292  1.4323
C       2.7306  -0.7645  -0.8054
C       2.2040  -1.9734  -0.1347
C       -2.5939  -1.3056  -0.4278
C       -2.4459  -1.2018  1.0518
N       1.5663  0.0238  -1.3211
N       1.1356  -1.5153  0.8104
N       -1.2144  -1.3643  -1.0112
N       -1.5502  -0.0521  1.3266
H       2.8924  -2.4773  0.5634
H       1.8711  -2.7018  -0.8693
H       -3.1649  -0.4491  -0.7583
H       -3.0519  -2.2058  -0.8371
H       1.7434  1.0191  -1.2948
H       1.1210  -0.1934  -2.2042
H       -1.9558  0.8537  1.1879
H       -1.0988  -0.0536  2.2281
H       -2.0352  -2.1299  1.4264
H       -3.3702  -1.0091  1.5747
H       0.5675  -2.2761  1.1234
H       1.4133  -0.9292  1.6069
H       3.2952  -0.9063  -1.7321
H       3.3494  -0.2147  -0.1031
H       -0.7219  -2.2530  -0.9172
H       -1.1939  -1.0646  -1.9677
