27

Co      0.0355  0.0651  0.0648
Cl      -1.1033  1.6274  -1.2369
Cl      1.1100  1.3657  1.2958
C       2.7019  -0.7238  -0.8394
C       2.1496  -1.9266  -0.1012
C       -2.5586  -1.3275  -0.4608
C       -2.4168  -1.1571  1.0371
N       1.5281  0.0532  -1.3096
N       1.0640  -1.4776  0.8289
N       -1.1691  -1.3753  -1.0219
N       -1.4626  -0.0547  1.3473
H       2.9148  -2.4531  0.4413
H       1.7115  -2.6222  -0.8053
H       -3.0647  -0.4918  -0.9063
H       -3.1070  -2.2273  -0.6928
H       1.7695  1.0144  -1.4940
H       1.1765  -0.3188  -2.1791
H       -1.9191  0.8374  1.2818
H       -1.1340  -0.1246  2.2907
H       -2.0214  -2.0662  1.4744
H       -3.3729  -0.9713  1.5013
H       0.4695  -2.2669  1.0453
H       1.4759  -1.1688  1.6976
H       3.3280  -1.0359  -1.6640
H       3.2905  -0.0977  -0.1866
H       -0.8264  -2.3124  -1.0069
H       -1.1915  -1.0738  -1.9756
