27

Co      -0.0123  -0.0286  -0.0007
Cl      -1.1212  1.6555  -1.2337
Cl      1.1961  1.5003  1.3984
C       2.8293  -0.7334  -0.8538
C       2.2342  -2.0525  -0.0910
C       -2.6123  -1.3211  -0.4608
C       -2.4828  -1.2443  1.0947
N       1.5082  0.0650  -1.3108
N       1.0397  -1.4387  0.7709
N       -1.1570  -1.2785  -0.9186
N       -1.5220  -0.0471  1.2892
H       2.8789  -2.6727  0.5569
H       1.7775  -2.6912  -0.8432
H       -3.0516  -0.3879  -0.8075
H       -3.1484  -2.1645  -0.9121
H       1.6826  1.0605  -1.3538
H       1.2509  -0.2055  -2.2391
H       -2.0092  0.8179  1.0916
H       -1.1887  0.0418  2.2451
H       -2.0435  -2.1251  1.5484
H       -3.4183  -1.0443  1.5936
H       0.4430  -2.1592  1.1530
H       1.4610  -0.9736  1.5578
H       3.4175  -0.9450  -1.7397
H       3.3951  -0.0742  -0.2059
H       -0.7491  -2.2016  -0.8507
H       -1.1312  -1.0163  -1.8903
