27

Co      -0.0051  -0.0598  -0.0184
Cl      -1.1163  1.6464  -1.2260
Cl      1.2247  1.5368  1.4407
C       2.7191  -0.7233  -0.8144
C       2.1445  -1.9406  -0.1253
C       -2.5940  -1.3265  -0.4325
C       -2.4653  -1.1877  1.0723
N       1.5425  0.0389  -1.3301
N       1.1062  -1.4484  0.8407
N       -1.2096  -1.3153  -1.0303
N       -1.5287  -0.0593  1.3004
H       2.9007  -2.5204  0.3931
H       1.6592  -2.5900  -0.8411
H       -3.1231  -0.4793  -0.8393
H       -3.1152  -2.2278  -0.7199
H       1.7480  1.0260  -1.3751
H       1.3040  -0.2410  -2.2580
H       -1.9790  0.8261  1.1173
H       -1.2059  -0.0144  2.2564
H       -2.0551  -2.0789  1.5231
H       -3.4243  -1.0036  1.5244
H       0.6141  -2.2242  1.2459
H       1.5593  -0.9544  1.5929
H       3.4004  -0.9914  -1.6048
H       3.2436  -0.0918  -0.1146
H       -0.8639  -2.2614  -1.1066
H       -1.2763  -0.9475  -1.9630
