27

Co      -0.0461  -0.0171  -0.0538
Cl      -1.1003  1.6221  -1.2098
Cl      1.2303  1.5366  1.4442
C       2.7371  -0.7031  -0.8403
C       2.1921  -2.0366  -0.1261
C       -2.6175  -1.3341  -0.4436
C       -2.4598  -1.1862  1.0661
N       1.5138  0.0773  -1.3387
N       1.1226  -1.5478  0.9700
N       -1.2013  -1.2709  -0.9908
N       -1.4792  -0.0768  1.2568
H       2.9808  -2.5980  0.3655
H       1.6765  -2.7030  -0.8075
H       -3.1863  -0.5189  -0.8801
H       -3.0741  -2.2728  -0.7275
H       1.7091  1.0740  -1.3164
H       1.2864  -0.1440  -2.2890
H       -1.9377  0.8150  1.1488
H       -1.0882  -0.0664  2.1851
H       -2.0396  -2.0903  1.4838
H       -3.3873  -0.9823  1.5813
H       0.6822  -2.3320  1.4432
H       1.6199  -1.0057  1.6758
H       3.4882  -0.8271  -1.6311
H       3.1674  -0.0746  -0.0589
H       -0.7998  -2.1964  -0.9718
H       -1.2408  -0.9816  -1.9498
