27

Co      0.0463  -0.0059  0.0282
Cl      -1.1092  1.6430  -1.2489
Cl      1.1193  1.3979  1.3143
C       2.6467  -0.7111  -0.8667
C       2.1336  -1.9093  -0.0591
C       -2.4993  -1.3212  -0.4335
C       -2.4407  -1.1355  1.0784
N       1.5183  0.1322  -1.3367
N       1.0400  -1.5435  0.9013
N       -1.1304  -1.3318  -1.0688
N       -1.4907  -0.0359  1.4082
H       2.9543  -2.3760  0.4542
H       1.7082  -2.6430  -0.7306
H       -3.0264  -0.4970  -0.8767
H       -3.0330  -2.2294  -0.6741
H       1.7636  1.1028  -1.3584
H       1.2146  -0.1045  -2.2640
H       -1.9191  0.8645  1.3125
H       -1.1617  -0.0950  2.3528
H       -2.0984  -2.0311  1.5771
H       -3.4372  -0.9224  1.4453
H       0.4666  -2.3614  1.0807
H       1.4168  -1.2271  1.7882
H       3.2333  -1.0831  -1.7012
H       3.2879  -0.0885  -0.2590
H       -0.7948  -2.2708  -1.1922
H       -1.2182  -0.9142  -1.9843
