27

Co      0.0106  0.0647  -0.0005
Cl      -1.0427  1.5425  -1.1810
Cl      1.1124  1.3754  1.3149
C       2.6048  -0.6861  -0.8318
C       2.0983  -1.9120  -0.0738
C       -2.4681  -1.2981  -0.4570
C       -2.3816  -1.1217  1.0537
N       1.4717  0.1155  -1.3570
N       1.0226  -1.5470  0.8967
N       -1.1050  -1.3677  -1.0773
N       -1.4527  -0.0133  1.4160
H       2.9236  -2.3948  0.4185
H       1.6710  -2.6250  -0.7633
H       -2.9643  -0.4543  -0.9007
H       -3.0441  -2.1805  -0.6824
H       1.7235  1.0760  -1.4772
H       1.1616  -0.2121  -2.2556
H       -1.9063  0.8850  1.4228
H       -1.0624  -0.1413  2.3294
H       -2.0023  -2.0205  1.5163
H       -3.3729  -0.9531  1.4523
H       0.4542  -2.3569  1.0979
H       1.4109  -1.2239  1.7705
H       3.2565  -1.0058  -1.6311
H       3.1676  -0.0479  -0.1747
H       -0.7546  -2.2997  -1.0629
H       -1.1681  -1.0748  -2.0336
