27

Co      -0.0188  -0.0391  0.0133
Cl      -1.1103  1.6354  -1.2254
Cl      1.1760  1.4656  1.3722
C       2.6771  -0.7239  -0.8259
C       2.1487  -1.9156  -0.1010
C       -2.5835  -1.3052  -0.4358
C       -2.3929  -1.1524  1.0343
N       1.5559  0.1039  -1.3444
N       1.1327  -1.5394  0.9344
N       -1.2071  -1.3162  -1.0302
N       -1.4606  -0.0327  1.2658
H       2.8714  -2.4511  0.4985
H       1.7492  -2.6189  -0.8266
H       -3.2108  -0.4965  -0.7879
H       -2.9925  -2.2497  -0.7953
H       1.7133  1.1080  -1.2203
H       1.1186  -0.0410  -2.2529
H       -1.8369  0.8881  1.0892
H       -1.0330  -0.0056  2.1724
H       -1.9924  -2.0822  1.4158
H       -3.2956  -0.9185  1.5909
H       0.5953  -2.3311  1.2185
H       1.4257  -0.9788  1.7381
H       3.2032  -0.9505  -1.7606
H       3.3580  -0.1840  -0.1725
H       -0.7322  -2.2058  -1.0415
H       -1.1841  -0.9007  -1.9474
