27

Co      0.0738  0.0316  0.0090
Cl      -1.0869  1.6178  -1.2256
Cl      1.1302  1.3995  1.3402
C       2.5368  -0.6924  -0.7223
C       2.0545  -1.8836  -0.1037
C       -2.5137  -1.3465  -0.4460
C       -2.4267  -1.1311  1.0464
N       1.4170  0.0317  -1.2826
N       1.1196  -1.4614  0.8168
N       -1.1558  -1.3670  -1.0703
N       -1.4405  -0.0707  1.3623
H       2.8742  -2.4462  0.3216
H       1.5886  -2.5153  -0.8498
H       -3.0412  -0.5217  -0.8865
H       -3.0625  -2.2482  -0.6641
H       1.6774  0.9814  -1.5474
H       1.0964  -0.4210  -2.1361
H       -1.8576  0.8463  1.3313
H       -1.0873  -0.1843  2.2931
H       -2.1291  -2.0386  1.5629
H       -3.4158  -0.8692  1.4099
H       0.5528  -2.2276  1.1182
H       1.5548  -1.0736  1.6304
H       3.2082  -1.0066  -1.5019
H       3.0799  -0.0565  -0.0504
H       -0.8211  -2.3044  -1.1170
H       -1.2496  -1.0315  -2.0112
