27

Co      -0.0060  0.0005  0.0049
Cl      -1.1033  1.6265  -1.2261
Cl      1.1816  1.4829  1.3763
C       2.7910  -0.7390  -0.8727
C       2.2503  -2.0579  -0.0593
C       -2.6206  -1.3552  -0.4679
C       -2.4736  -1.2105  1.0813
N       1.4760  0.1034  -1.2696
N       1.0308  -1.4751  0.7865
N       -1.1797  -1.2828  -0.9595
N       -1.4650  -0.0513  1.2839
H       2.9320  -2.6050  0.6037
H       1.8333  -2.7564  -0.7778
H       -3.1128  -0.4736  -0.8513
H       -3.1253  -2.2391  -0.8512
H       1.6797  1.0927  -1.2841
H       1.1865  -0.1236  -2.2024
H       -1.9304  0.8316  1.1657
H       -1.1004  -0.0347  2.2223
H       -2.0822  -2.0956  1.5641
H       -3.4033  -0.9520  1.5712
H       0.4162  -2.2059  1.1144
H       1.4277  -1.0445  1.6063
H       3.3203  -0.9683  -1.8022
H       3.4206  -0.0908  -0.2651
H       -0.7594  -2.1969  -0.9263
H       -1.1793  -0.9907  -1.9212
