27

Co      0.0194  0.0109  -0.0200
Cl      -1.0818  1.6204  -1.2210
Cl      1.1536  1.4393  1.3684
C       2.6262  -0.6920  -0.7952
C       2.1096  -1.9440  -0.1094
C       -2.4568  -1.3028  -0.4407
C       -2.4258  -1.1407  1.0818
N       1.4535  0.0540  -1.3213
N       1.0483  -1.5018  0.8448
N       -1.0959  -1.3943  -1.0887
N       -1.5048  -0.0310  1.4548
H       2.9001  -2.4656  0.4027
H       1.6663  -2.6202  -0.8216
H       -2.9195  -0.4284  -0.8671
H       -3.0640  -2.1586  -0.6996
H       1.6748  1.0211  -1.4795
H       1.1541  -0.3117  -2.2112
H       -1.9441  0.8692  1.4036
H       -1.1419  -0.1231  2.3873
H       -2.0797  -2.0370  1.5733
H       -3.4406  -0.9626  1.4179
H       0.4851  -2.2785  1.1330
H       1.4650  -1.1133  1.6694
H       3.3235  -0.9268  -1.5810
H       3.1203  -0.0509  -0.0848
H       -0.7697  -2.3397  -1.1226
H       -1.1875  -1.0707  -2.0338
