27

Co      0.0067  0.0384  0.0166
Cl      -1.0954  1.6434  -1.2443
Cl      1.1197  1.3766  1.3185
C       2.6190  -0.6836  -0.7702
C       2.1113  -1.9565  -0.1161
C       -2.4920  -1.3361  -0.4579
C       -2.4075  -1.1178  1.0452
N       1.4412  0.0467  -1.3005
N       1.1142  -1.5163  0.9022
N       -1.1044  -1.3214  -1.0300
N       -1.3993  -0.0700  1.3612
H       2.9149  -2.5294  0.3232
H       1.6135  -2.5920  -0.8396
H       -3.0410  -0.5359  -0.9296
H       -2.9897  -2.2673  -0.6773
H       1.6609  1.0123  -1.4844
H       1.1372  -0.3434  -2.1808
H       -1.8184  0.8533  1.3825
H       -1.0026  -0.2096  2.2764
H       -2.0962  -2.0355  1.5339
H       -3.3778  -0.8565  1.4464
H       0.6009  -2.2971  1.2592
H       1.5868  -1.0941  1.6813
H       3.3353  -0.8957  -1.5551
H       3.0969  -0.0521  -0.0406
H       -0.7262  -2.2435  -1.0192
H       -1.1569  -1.0182  -1.9798
