27

Co      0.0025  -0.0003  -0.0050
Cl      -1.0735  1.6009  -1.2015
Cl      1.1397  1.4167  1.3517
C       2.5643  -0.6963  -0.7669
C       2.0573  -1.8526  -0.0873
C       -2.4512  -1.2659  -0.4478
C       -2.3630  -1.1407  1.0530
N       1.4908  0.0794  -1.3743
N       1.0869  -1.5386  0.8569
N       -1.0983  -1.3807  -1.0575
N       -1.4843  0.0011  1.3964
H       2.8978  -2.3989  0.3222
H       1.6088  -2.4971  -0.8299
H       -2.8944  -0.3694  -0.8469
H       -3.0800  -2.1020  -0.7238
H       1.7475  1.0402  -1.4979
H       1.2444  -0.2690  -2.2823
H       -1.9486  0.8871  1.3377
H       -1.1148  -0.0685  2.3214
H       -1.9463  -2.0277  1.5084
H       -3.3644  -1.0167  1.4465
H       0.5740  -2.3622  1.1067
H       1.4782  -1.1637  1.7023
H       3.2138  -1.1124  -1.5279
H       3.1497  -0.0508  -0.1407
H       -0.7692  -2.3243  -1.0123
H       -1.1474  -1.1186  -2.0240
