27

Co      -0.0364  -0.0175  0.0014
Cl      -1.0921  1.6158  -1.2207
Cl      1.1729  1.4600  1.3731
C       2.7447  -0.7197  -0.8297
C       2.1758  -1.9802  -0.0986
C       -2.5571  -1.3284  -0.4487
C       -2.4445  -1.1714  1.0675
N       1.5242  0.0769  -1.3411
N       1.0767  -1.4776  0.8500
N       -1.1462  -1.2572  -0.9831
N       -1.4658  -0.0487  1.3164
H       2.8543  -2.5683  0.5214
H       1.7420  -2.6406  -0.8424
H       -3.1330  -0.4969  -0.8257
H       -2.9840  -2.2551  -0.8302
H       1.6862  1.0734  -1.3246
H       1.1835  -0.1575  -2.2552
H       -1.8758  0.8633  1.2088
H       -1.0491  -0.0642  2.2302
H       -2.0846  -2.0829  1.5246
H       -3.3784  -0.9079  1.5436
H       0.5180  -2.2310  1.1999
H       1.4404  -0.9517  1.6350
H       3.3236  -0.9315  -1.7256
H       3.3443  -0.1162  -0.1662
H       -0.6755  -2.1502  -0.9811
H       -1.1409  -0.8929  -1.9167
