27

Co      -0.0357  -0.0350  -0.0083
Cl      -1.0797  1.6051  -1.2057
Cl      1.1795  1.4751  1.3884
C       2.6703  -0.7049  -0.8194
C       2.1250  -1.9248  -0.1052
C       -2.5288  -1.3042  -0.4484
C       -2.4021  -1.1471  1.0516
N       1.5009  0.0658  -1.3251
N       1.0568  -1.4774  0.8449
N       -1.1339  -1.2802  -0.9952
N       -1.4371  -0.0491  1.2897
H       2.9011  -2.4572  0.4237
H       1.6782  -2.6127  -0.8094
H       -3.0690  -0.4815  -0.8830
H       -3.0217  -2.2252  -0.7197
H       1.7078  1.0502  -1.3534
H       1.2576  -0.1981  -2.2595
H       -1.8785  0.8490  1.1891
H       -1.0707  -0.0623  2.2206
H       -2.0084  -2.0479  1.5007
H       -3.3511  -0.9392  1.5167
H       0.5702  -2.2717  1.2106
H       1.4889  -1.0149  1.6264
H       3.3304  -0.9894  -1.6225
H       3.2142  -0.0730  -0.1402
H       -0.7556  -2.2081  -0.9882
H       -1.1668  -0.9744  -1.9480
