27

Co      0.0030  0.0007  -0.0007
Cl      -1.0896  1.6114  -1.2185
Cl      1.1549  1.4300  1.3595
C       2.6641  -0.7006  -0.8124
C       2.1183  -1.9290  -0.1050
C       -2.5201  -1.3181  -0.4432
C       -2.4279  -1.1452  1.0654
N       1.5077  0.0727  -1.3387
N       1.0920  -1.4903  0.8893
N       -1.1468  -1.3185  -1.0575
N       -1.4845  -0.0390  1.3685
H       2.9077  -2.4898  0.3708
H       1.6311  -2.5844  -0.8140
H       -3.0534  -0.4886  -0.8762
H       -3.0462  -2.2250  -0.6918
H       1.7309  1.0465  -1.4302
H       1.2354  -0.2419  -2.2498
H       -1.9277  0.8599  1.2924
H       -1.1252  -0.0952  2.3022
H       -2.0530  -2.0427  1.5358
H       -3.4079  -0.9521  1.4739
H       0.5779  -2.2793  1.2275
H       1.5363  -1.0598  1.6786
H       3.3422  -0.9840  -1.6028
H       3.1961  -0.0697  -0.1229
H       -0.7921  -2.2543  -1.1172
H       -1.2201  -0.9581  -1.9905
