27

Co      0.0168  0.0131  0.0300
Cl      -1.0868  1.6174  -1.2227
Cl      1.1249  1.3985  1.3218
C       2.6300  -0.6994  -0.8440
C       2.1132  -1.8992  -0.1085
C       -2.4996  -1.2927  -0.4451
C       -2.3777  -1.1173  1.0368
N       1.4907  0.0679  -1.2901
N       1.0282  -1.4956  0.8662
N       -1.1255  -1.3608  -1.0405
N       -1.4307  -0.0511  1.3376
H       2.9331  -2.3394  0.4347
H       1.7037  -2.6598  -0.7634
H       -3.0303  -0.4888  -0.9197
H       -3.0334  -2.2157  -0.6297
H       1.7183  1.0387  -1.3832
H       1.1593  -0.2282  -2.1903
H       -1.8645  0.8504  1.2464
H       -1.1021  -0.1000  2.2792
H       -1.9913  -2.0328  1.4622
H       -3.3393  -0.9381  1.4868
H       0.4942  -2.3100  1.1123
H       1.4446  -1.1498  1.7145
H       3.2988  -0.9687  -1.6474
H       3.1766  -0.0898  -0.1470
H       -0.8045  -2.3050  -1.0556
H       -1.1772  -1.0414  -1.9879
