27

Co      -0.0246  -0.0119  -0.0158
Cl      -1.0875  1.6106  -1.2113
Cl      1.1921  1.4928  1.3969
C       2.7175  -0.7201  -0.8423
C       2.1890  -1.9994  -0.0801
C       -2.5648  -1.3340  -0.4593
C       -2.4322  -1.1692  1.0707
N       1.4821  0.0948  -1.3007
N       1.0623  -1.5037  0.8446
N       -1.1707  -1.3264  -1.0391
N       -1.4665  -0.0297  1.3287
H       2.9369  -2.5406  0.4868
H       1.7446  -2.6840  -0.7896
H       -3.0698  -0.4725  -0.8668
H       -3.1046  -2.2204  -0.7599
H       1.6957  1.0795  -1.3212
H       1.2164  -0.1492  -2.2351
H       -1.9219  0.8618  1.2515
H       -1.0832  -0.0618  2.2564
H       -2.0377  -2.0551  1.5444
H       -3.3879  -0.9562  1.5215
H       0.5186  -2.2705  1.1910
H       1.4784  -1.0517  1.6412
H       3.3189  -0.9703  -1.7047
H       3.2983  -0.0792  -0.1942
H       -0.7879  -2.2544  -1.0461
H       -1.2151  -1.0093  -1.9895
