27

Co      0.0043  0.0252  0.0124
Cl      -1.0789  1.5900  -1.2105
Cl      1.1229  1.3801  1.3154
C       2.6525  -0.7060  -0.8225
C       2.1309  -1.9302  -0.0905
C       -2.5137  -1.3086  -0.4474
C       -2.4074  -1.1361  1.0560
N       1.4911  0.0884  -1.2989
N       1.0868  -1.4864  0.8780
N       -1.1324  -1.2923  -1.0357
N       -1.4566  -0.0344  1.3489
H       2.9281  -2.4503  0.4104
H       1.6711  -2.6238  -0.7810
H       -3.0587  -0.4917  -0.8862
H       -3.0188  -2.2281  -0.6928
H       1.7287  1.0589  -1.3786
H       1.1961  -0.2031  -2.2114
H       -1.9044  0.8636  1.2838
H       -1.0954  -0.0936  2.2787
H       -2.0256  -2.0370  1.5172
H       -3.3775  -0.9388  1.4874
H       0.5631  -2.2745  1.2045
H       1.5238  -1.0674  1.6781
H       3.2887  -0.9940  -1.6469
H       3.2257  -0.0866  -0.1558
H       -0.7636  -2.2197  -1.0648
H       -1.1923  -0.9529  -1.9763
