27

Co      0.0168  0.0160  0.0315
Cl      -1.1023  1.6344  -1.2327
Cl      1.1400  1.4145  1.3355
C       2.6719  -0.7135  -0.8274
C       2.1412  -1.9326  -0.0990
C       -2.5430  -1.3185  -0.4545
C       -2.4075  -1.1488  1.0460
N       1.4995  0.0668  -1.2998
N       1.0714  -1.4918  0.8509
N       -1.1586  -1.3566  -1.0333
N       -1.4528  -0.0463  1.3319
H       2.9243  -2.4539  0.4248
H       1.6964  -2.6273  -0.7987
H       -3.0548  -0.4817  -0.8933
H       -3.0874  -2.2189  -0.6947
H       1.7288  1.0377  -1.4118
H       1.1866  -0.2504  -2.1976
H       -1.9003  0.8490  1.2463
H       -1.1116  -0.0919  2.2719
H       -2.0157  -2.0521  1.4928
H       -3.3655  -0.9552  1.5008
H       0.5211  -2.2826  1.1295
H       1.4936  -1.1179  1.6821
H       3.3065  -1.0033  -1.6508
H       3.2455  -0.0881  -0.1638
H       -0.8147  -2.2948  -1.0387
H       -1.1976  -1.0407  -1.9824
