27

Co      -0.0241  -0.0145  -0.0116
Cl      -1.0818  1.6106  -1.2133
Cl      1.1844  1.4811  1.3925
C       2.6733  -0.7136  -0.7957
C       2.1509  -1.9679  -0.0868
C       -2.5484  -1.3445  -0.4607
C       -2.4276  -1.1556  1.0599
N       1.4600  0.0677  -1.2983
N       1.0800  -1.4796  0.8136
N       -1.1535  -1.2980  -1.0178
N       -1.4287  -0.0491  1.3112
H       2.9022  -2.5396  0.4442
H       1.6991  -2.6196  -0.8244
H       -3.0774  -0.5049  -0.8793
H       -3.0564  -2.2506  -0.7549
H       1.6771  1.0462  -1.3745
H       1.2056  -0.2317  -2.2187
H       -1.8654  0.8566  1.2688
H       -1.0323  -0.1125  2.2311
H       -2.0769  -2.0486  1.5598
H       -3.3828  -0.8955  1.4924
H       0.5497  -2.2421  1.1857
H       1.5051  -1.0103  1.5960
H       3.2873  -0.9914  -1.6365
H       3.2465  -0.0677  -0.1505
H       -0.7543  -2.2177  -1.0145
H       -1.1960  -0.9894  -1.9698
