27

Co      0.0219  0.0010  0.0133
Cl      -1.0999  1.6395  -1.2342
Cl      1.1392  1.4208  1.3433
C       2.6521  -0.6976  -0.8273
C       2.1222  -1.9345  -0.0914
C       -2.5098  -1.3104  -0.4517
C       -2.4240  -1.1542  1.0658
N       1.4752  0.0706  -1.3131
N       1.0377  -1.4961  0.8457
N       -1.1096  -1.3199  -0.9985
N       -1.4557  -0.0579  1.3443
H       2.9540  -2.4506  0.3653
H       1.6451  -2.6191  -0.7777
H       -2.9731  -0.4592  -0.9241
H       -3.0894  -2.1955  -0.6729
H       1.7311  1.0341  -1.4623
H       1.2771  -0.2763  -2.2382
H       -1.9352  0.8233  1.2682
H       -1.1536  -0.0999  2.3010
H       -2.0378  -2.0418  1.5501
H       -3.4104  -0.9733  1.4655
H       0.5212  -2.3005  1.1504
H       1.5251  -1.1772  1.6717
H       3.3574  -1.0344  -1.5762
H       3.1596  -0.0250  -0.1562
H       -0.8136  -2.2773  -1.0028
H       -1.1772  -1.0521  -1.9638
