27

Co      0.0071  0.0343  -0.0005
Cl      -1.0724  1.5858  -1.2017
Cl      1.1364  1.4003  1.3410
C       2.6069  -0.6989  -0.8050
C       2.0865  -1.8857  -0.1116
C       -2.4936  -1.2959  -0.4430
C       -2.4005  -1.1316  1.0489
N       1.5016  0.0535  -1.3227
N       1.0858  -1.4985  0.8748
N       -1.1280  -1.3317  -1.0456
N       -1.4730  -0.0482  1.3629
H       2.9744  -2.3816  0.2804
H       1.5972  -2.5768  -0.7793
H       -2.9915  -0.4770  -0.9370
H       -3.0744  -2.1994  -0.5909
H       1.7900  1.0064  -1.5020
H       1.3069  -0.3191  -2.2399
H       -1.9596  0.8335  1.3289
H       -1.1561  -0.1324  2.3093
H       -1.9922  -2.0232  1.5068
H       -3.3997  -1.0006  1.4437
H       0.6253  -2.3278  1.2055
H       1.5949  -1.1577  1.6752
H       3.3640  -1.0563  -1.5057
H       3.0882  -0.0420  -0.1005
H       -0.8468  -2.2942  -1.0587
H       -1.2289  -1.0653  -2.0094
