27

Co      0.0258  0.0119  0.0168
Cl      -1.0923  1.6110  -1.2275
Cl      1.1283  1.3962  1.3266
C       2.6665  -0.7058  -0.8344
C       2.1211  -1.9168  -0.0886
C       -2.5134  -1.3240  -0.4371
C       -2.4467  -1.1439  1.0722
N       1.5204  0.0900  -1.3424
N       1.0677  -1.4907  0.8826
N       -1.1354  -1.2971  -1.0450
N       -1.4911  -0.0478  1.3862
H       2.9119  -2.4468  0.4109
H       1.6568  -2.6008  -0.7845
H       -3.0601  -0.5086  -0.8781
H       -3.0165  -2.2443  -0.6879
H       1.7539  1.0601  -1.4274
H       1.2295  -0.2118  -2.2529
H       -1.9268  0.8532  1.3052
H       -1.1480  -0.1094  2.3251
H       -2.0972  -2.0441  1.5601
H       -3.4340  -0.9303  1.4587
H       0.5199  -2.2851  1.1574
H       1.4878  -1.1105  1.7112
H       3.3115  -1.0279  -1.6395
H       3.2398  -0.0784  -0.1757
H       -0.7769  -2.2290  -1.1363
H       -1.2138  -0.9065  -1.9684
