27

Co      0.0138  0.0402  -0.0083
Cl      -1.0766  1.5973  -1.2097
Cl      1.1469  1.4221  1.3529
C       2.6099  -0.7192  -0.7998
C       2.1128  -1.9015  -0.1175
C       -2.4921  -1.2993  -0.4297
C       -2.4215  -1.1404  1.0544
N       1.5010  0.0372  -1.3023
N       1.0835  -1.5079  0.8350
N       -1.1321  -1.3636  -1.0498
N       -1.5000  -0.0593  1.3934
H       2.9543  -2.3517  0.3904
H       1.7087  -2.6383  -0.7932
H       -3.0115  -0.4771  -0.8860
H       -3.0420  -2.2031  -0.6413
H       1.7641  0.9966  -1.4486
H       1.1941  -0.3047  -2.1945
H       -1.9443  0.8384  1.3416
H       -1.1469  -0.1473  2.3265
H       -2.0535  -2.0501  1.5055
H       -3.4156  -0.9734  1.4421
H       0.5602  -2.3173  1.1097
H       1.4978  -1.1278  1.6650
H       3.3031  -1.0034  -1.5745
H       3.1387  -0.1032  -0.0945
H       -0.7963  -2.3047  -1.0489
H       -1.2154  -1.0744  -2.0067
