27

Co      0.0085  -0.0029  -0.0075
Cl      -1.0729  1.5950  -1.2056
Cl      1.1421  1.4222  1.3468
C       2.6213  -0.6967  -0.8429
C       2.1138  -1.9145  -0.1033
C       -2.4756  -1.2840  -0.4383
C       -2.3975  -1.1237  1.0630
N       1.4636  0.0678  -1.2649
N       1.0175  -1.4705  0.8400
N       -1.1007  -1.3237  -1.0427
N       -1.4600  -0.0453  1.3591
H       2.9773  -2.3390  0.3953
H       1.6759  -2.6770  -0.7334
H       -2.9659  -0.4641  -0.9349
H       -3.0536  -2.1887  -0.5958
H       1.7259  1.0324  -1.3744
H       1.2486  -0.2335  -2.2002
H       -1.9343  0.8369  1.2701
H       -1.1664  -0.0821  2.3168
H       -1.9996  -2.0147  1.5261
H       -3.3940  -0.9776  1.4524
H       0.5306  -2.2830  1.1697
H       1.5096  -1.1256  1.6495
H       3.3437  -0.9890  -1.5928
H       3.1132  -0.0491  -0.1362
H       -0.8303  -2.2898  -1.0882
H       -1.2087  -1.0296  -1.9988
