27

Co      0.0198  0.0111  0.0322
Cl      -1.0993  1.6241  -1.2259
Cl      1.1308  1.3927  1.3261
C       2.6344  -0.7081  -0.7986
C       2.1035  -1.8894  -0.0949
C       -2.5244  -1.3081  -0.4531
C       -2.3887  -1.1388  1.0438
N       1.5104  0.0756  -1.3233
N       1.1155  -1.4929  0.8759
N       -1.1634  -1.3616  -1.0714
N       -1.4673  -0.0191  1.3521
H       2.9100  -2.4545  0.3470
H       1.6203  -2.5373  -0.8162
H       -3.0325  -0.4620  -0.8768
H       -3.0939  -2.1948  -0.6831
H       1.7553  1.0408  -1.4464
H       1.2192  -0.2600  -2.2213
H       -1.9210  0.8737  1.2733
H       -1.1229  -0.0755  2.2890
H       -1.9815  -2.0332  1.4958
H       -3.3624  -0.9744  1.4803
H       0.5916  -2.2942  1.1676
H       1.5465  -1.1032  1.6930
H       3.2661  -1.0673  -1.5997
H       3.2302  -0.0816  -0.1578
H       -0.8328  -2.3045  -1.1065
H       -1.2201  -1.0188  -2.0104
