27

Co      0.0012  -0.0019  -0.0025
Cl      -1.0741  1.5962  -1.2068
Cl      1.1433  1.4246  1.3493
C       2.5964  -0.7068  -0.8210
C       2.0927  -1.8702  -0.1003
C       -2.4724  -1.2819  -0.4310
C       -2.3900  -1.1225  1.0517
N       1.5079  0.0748  -1.3238
N       1.0544  -1.5174  0.8639
N       -1.1145  -1.3388  -1.0511
N       -1.4723  -0.0389  1.3710
H       2.9430  -2.3121  0.3984
H       1.6870  -2.6170  -0.7672
H       -3.0001  -0.4662  -0.8869
H       -3.0132  -2.1927  -0.6393
H       1.7580  1.0426  -1.3847
H       1.2265  -0.2021  -2.2439
H       -1.9105  0.8592  1.2904
H       -1.1248  -0.0976  2.3051
H       -2.0072  -2.0275  1.4987
H       -3.3777  -0.9598  1.4545
H       0.5531  -2.3471  1.1217
H       1.4556  -1.1392  1.7036
H       3.2618  -1.0438  -1.6008
H       3.1630  -0.0917  -0.1485
H       -0.7833  -2.2808  -1.0782
H       -1.1911  -1.0167  -1.9975
