27

Co      0.0352  0.0192  0.0011
Cl      -1.0876  1.6166  -1.2188
Cl      1.1472  1.4299  1.3539
C       2.5930  -0.7119  -0.7973
C       2.1036  -1.8960  -0.1152
C       -2.5122  -1.3032  -0.4318
C       -2.4148  -1.1401  1.0467
N       1.4762  0.0390  -1.2796
N       1.0704  -1.4929  0.8281
N       -1.1431  -1.3631  -1.0333
N       -1.4711  -0.0713  1.3453
H       2.9419  -2.3402  0.4022
H       1.7036  -2.6404  -0.7888
H       -3.0353  -0.4853  -0.8895
H       -3.0528  -2.2139  -0.6423
H       1.7300  1.0014  -1.4226
H       1.1575  -0.2981  -2.1691
H       -1.9064  0.8284  1.2527
H       -1.1404  -0.1226  2.2875
H       -2.0502  -2.0536  1.4932
H       -3.3913  -0.9500  1.4621
H       0.5367  -2.2957  1.1007
H       1.4862  -1.1190  1.6609
H       3.2757  -0.9879  -1.5831
H       3.1285  -0.0982  -0.0954
H       -0.8178  -2.3072  -1.0371
H       -1.2162  -1.0684  -1.9894
