27

Co      0.0009  0.0089  0.0026
Cl      -1.0709  1.5772  -1.1977
Cl      1.1387  1.4114  1.3380
C       2.6632  -0.7067  -0.8488
C       2.1299  -1.9225  -0.0781
C       -2.5120  -1.2989  -0.4505
C       -2.4116  -1.1488  1.0667
N       1.4941  0.0953  -1.3061
N       1.0352  -1.4744  0.8411
N       -1.1236  -1.2903  -1.0213
N       -1.4709  -0.0295  1.3435
H       2.9622  -2.4159  0.4006
H       1.6636  -2.6332  -0.7449
H       -2.9958  -0.4563  -0.9137
H       -3.0817  -2.1912  -0.6639
H       1.7639  1.0598  -1.4007
H       1.3051  -0.2006  -2.2498
H       -1.9649  0.8434  1.2648
H       -1.1614  -0.0620  2.2955
H       -1.9917  -2.0269  1.5409
H       -3.3990  -0.9984  1.4794
H       0.5314  -2.2800  1.1630
H       1.5158  -1.1289  1.6570
H       3.3306  -1.0736  -1.6191
H       3.2153  -0.0427  -0.2043
H       -0.8192  -2.2448  -1.0499
H       -1.2057  -0.9992  -1.9794
