27

Co      -0.0296  -0.0158  -0.0065
Cl      -1.0921  1.6176  -1.2190
Cl      1.1764  1.4693  1.3766
C       2.7439  -0.7286  -0.8472
C       2.1970  -1.9967  -0.0849
C       -2.5486  -1.3200  -0.4519
C       -2.4464  -1.1801  1.0793
N       1.4999  0.0794  -1.2966
N       1.0503  -1.4724  0.8063
N       -1.1357  -1.2766  -0.9856
N       -1.4805  -0.0403  1.3296
H       2.9212  -2.5356  0.5188
H       1.7673  -2.6896  -0.7959
H       -3.0541  -0.4580  -0.8544
H       -3.0576  -2.2122  -0.7919
H       1.7064  1.0657  -1.3146
H       1.2388  -0.1628  -2.2338
H       -1.9379  0.8475  1.2244
H       -1.1132  -0.0468  2.2646
H       -2.0557  -2.0693  1.5542
H       -3.4041  -0.9640  1.5238
H       0.5024  -2.2331  1.1630
H       1.4640  -1.0149  1.6017
H       3.3377  -0.9834  -1.7141
H       3.3302  -0.0902  -0.2024
H       -0.7350  -2.1976  -0.9769
H       -1.1635  -0.9686  -1.9391
