27

Co      0.0058  0.0267  0.0054
Cl      -1.0643  1.5743  -1.1988
Cl      1.1300  1.3956  1.3317
C       2.6061  -0.7024  -0.7902
C       2.0934  -1.8936  -0.0893
C       -2.5008  -1.3133  -0.4491
C       -2.4008  -1.1309  1.0478
N       1.4795  0.0743  -1.3210
N       1.0818  -1.4881  0.8473
N       -1.1283  -1.3053  -1.0353
N       -1.4423  -0.0412  1.3494
H       2.9040  -2.4208  0.3856
H       1.6473  -2.5715  -0.8027
H       -3.0407  -0.4950  -0.8888
H       -3.0162  -2.2277  -0.6897
H       1.7296  1.0375  -1.4451
H       1.1975  -0.2616  -2.2228
H       -1.8826  0.8628  1.3168
H       -1.0669  -0.1307  2.2710
H       -2.0405  -2.0326  1.5251
H       -3.3766  -0.9178  1.4604
H       0.5553  -2.2831  1.1473
H       1.5005  -1.0848  1.6643
H       3.2482  -1.0420  -1.5889
H       3.1835  -0.0715  -0.1400
H       -0.7582  -2.2313  -1.0424
H       -1.1889  -0.9910  -1.9840
