27

Co      0.0229  0.0176  0.0143
Cl      -1.0935  1.6248  -1.2278
Cl      1.1327  1.4088  1.3359
C       2.6641  -0.7013  -0.8301
C       2.1231  -1.9326  -0.0932
C       -2.5098  -1.3095  -0.4499
C       -2.4351  -1.1616  1.0686
N       1.4889  0.0651  -1.3251
N       1.0331  -1.4878  0.8346
N       -1.1059  -1.3098  -0.9865
N       -1.4714  -0.0616  1.3553
H       2.9476  -2.4506  0.3726
H       1.6497  -2.6172  -0.7813
H       -2.9731  -0.4574  -0.9204
H       -3.0830  -2.1946  -0.6812
H       1.7494  1.0258  -1.4927
H       1.2881  -0.2975  -2.2447
H       -1.9564  0.8169  1.2838
H       -1.1701  -0.1081  2.3120
H       -2.0479  -2.0501  1.5520
H       -3.4251  -0.9861  1.4637
H       0.5064  -2.2904  1.1293
H       1.5168  -1.1790  1.6671
H       3.3739  -1.0445  -1.5734
H       3.1688  -0.0269  -0.1580
H       -0.8026  -2.2644  -0.9817
H       -1.1707  -1.0503  -1.9546
