27

Co      0.0016  0.0180  0.0081
Cl      -1.0964  1.6264  -1.2267
Cl      1.1449  1.4184  1.3415
C       2.6592  -0.7163  -0.8183
C       2.1520  -1.9507  -0.0968
C       -2.5293  -1.3114  -0.4482
C       -2.4131  -1.1512  1.0543
N       1.4880  0.0723  -1.2899
N       1.0925  -1.5143  0.8635
N       -1.1416  -1.3280  -1.0206
N       -1.4603  -0.0467  1.3376
H       2.9536  -2.4576  0.4156
H       1.7112  -2.6526  -0.7903
H       -3.0469  -0.4754  -0.8837
H       -3.0583  -2.2147  -0.7062
H       1.7257  1.0441  -1.3726
H       1.1943  -0.2186  -2.2019
H       -1.9108  0.8486  1.2671
H       -1.0984  -0.0984  2.2698
H       -2.0255  -2.0536  1.5062
H       -3.3771  -0.9564  1.4970
H       0.5678  -2.3061  1.1808
H       1.5216  -1.1016  1.6718
H       3.3000  -0.9851  -1.6436
H       3.2226  -0.0939  -0.1446
H       -0.7777  -2.2592  -1.0050
H       -1.1866  -1.0333  -1.9768
