27

Co      0.0032  0.0136  0.0010
Cl      -1.0708  1.5907  -1.2035
Cl      1.1400  1.4181  1.3426
C       2.5859  -0.7091  -0.8131
C       2.1015  -1.8821  -0.1006
C       -2.4924  -1.2903  -0.4375
C       -2.3812  -1.1205  1.0384
N       1.4842  0.0683  -1.2904
N       1.0622  -1.5138  0.8526
N       -1.1268  -1.3362  -1.0350
N       -1.4403  -0.0508  1.3333
H       2.9548  -2.3105  0.4082
H       1.7067  -2.6417  -0.7632
H       -3.0329  -0.4873  -0.9022
H       -3.0168  -2.2141  -0.6351
H       1.7401  1.0342  -1.3686
H       1.1864  -0.2159  -2.2030
H       -1.8772  0.8506  1.2671
H       -1.0860  -0.1151  2.2633
H       -2.0009  -2.0313  1.4775
H       -3.3515  -0.9379  1.4710
H       0.5587  -2.3361  1.1244
H       1.4703  -1.1298  1.6859
H       3.2442  -1.0209  -1.6078
H       3.1535  -0.0986  -0.1360
H       -0.7860  -2.2735  -1.0281
H       -1.1914  -1.0435  -1.9916
