27

Co      0.0000  0.0046  -0.0002
Cl      -1.1039  1.6290  -1.2255
Cl      1.1723  1.4553  1.3742
C       2.6955  -0.7286  -0.8064
C       2.1555  -1.9471  -0.1201
C       -2.5625  -1.3154  -0.4336
C       -2.4444  -1.1748  1.0585
N       1.5330  0.0470  -1.3214
N       1.1175  -1.4901  0.8542
N       -1.1769  -1.3258  -1.0157
N       -1.5100  -0.0573  1.3341
H       2.8895  -2.4904  0.4602
H       1.7342  -2.6314  -0.8443
H       -3.1224  -0.4793  -0.8179
H       -3.0366  -2.2280  -0.7678
H       1.7283  1.0312  -1.3681
H       1.1617  -0.2300  -2.2115
H       -1.9278  0.8472  1.2021
H       -1.1251  -0.0692  2.2600
H       -2.0639  -2.0921  1.4849
H       -3.3921  -0.9637  1.5272
H       0.5659  -2.2599  1.1765
H       1.4866  -0.9931  1.6486
H       3.3146  -0.9409  -1.6680
H       3.2737  -0.1414  -0.1110
H       -0.7559  -2.2377  -1.0140
H       -1.1980  -0.9783  -1.9546
