27

Co      -0.0341  -0.0170  -0.0002
Cl      -1.0877  1.6196  -1.2168
Cl      1.1673  1.4542  1.3693
C       2.6637  -0.7106  -0.8167
C       2.1422  -1.9406  -0.1016
C       -2.5306  -1.3080  -0.4521
C       -2.3950  -1.1431  1.0455
N       1.4905  0.0687  -1.3013
N       1.0796  -1.5023  0.8576
N       -1.1347  -1.2906  -0.9951
N       -1.4231  -0.0505  1.2887
H       2.9338  -2.4600  0.4163
H       1.6989  -2.6366  -0.8002
H       -3.0711  -0.4890  -0.8939
H       -3.0251  -2.2314  -0.7127
H       1.7086  1.0499  -1.3358
H       1.2330  -0.1925  -2.2324
H       -1.8655  0.8498  1.2140
H       -1.0469  -0.0850  2.2152
H       -2.0036  -2.0468  1.4920
H       -3.3408  -0.9307  1.5171
H       0.5948  -2.2998  1.2201
H       1.5156  -1.0459  1.6408
H       3.3122  -0.9836  -1.6340
H       3.2179  -0.0848  -0.1401
H       -0.7522  -2.2159  -0.9649
H       -1.1626  -1.0038  -1.9540
