27

Co      -0.0219  0.0031  -0.0133
Cl      -1.0811  1.5941  -1.2066
Cl      1.1822  1.4704  1.3861
C       2.6902  -0.7283  -0.8260
C       2.1594  -1.9484  -0.1018
C       -2.5521  -1.3302  -0.4412
C       -2.4423  -1.1560  1.0624
N       1.5181  0.0630  -1.3045
N       1.0916  -1.4837  0.8396
N       -1.1731  -1.3007  -1.0379
N       -1.4848  -0.0522  1.3366
H       2.9436  -2.4615  0.4369
H       1.7202  -2.6509  -0.7933
H       -3.1067  -0.5156  -0.8782
H       -3.0504  -2.2545  -0.6924
H       1.7544  1.0391  -1.3565
H       1.2510  -0.2070  -2.2296
H       -1.9301  0.8452  1.2677
H       -1.1129  -0.1043  2.2664
H       -2.0653  -2.0534  1.5307
H       -3.4091  -0.9480  1.4916
H       0.5838  -2.2702  1.1946
H       1.5207  -1.0273  1.6252
H       3.3330  -1.0061  -1.6459
H       3.2542  -0.1040  -0.1523
H       -0.7951  -2.2294  -1.0753
H       -1.2433  -0.9640  -1.9801
