27

Co      0.0229  0.0070  0.0175
Cl      -1.0869  1.6018  -1.2148
Cl      1.1236  1.3929  1.3192
C       2.6599  -0.7088  -0.8429
C       2.1278  -1.9144  -0.0827
C       -2.5138  -1.2926  -0.4411
C       -2.4154  -1.1539  1.0645
N       1.5055  0.0964  -1.3162
N       1.0439  -1.4842  0.8540
N       -1.1239  -1.3018  -1.0110
N       -1.4824  -0.0346  1.3478
H       2.9167  -2.4089  0.4547
H       1.6982  -2.6325  -0.7686
H       -3.0251  -0.4490  -0.8637
H       -3.0405  -2.1903  -0.7204
H       1.7396  1.0691  -1.3764
H       1.2089  -0.1774  -2.2334
H       -1.9369  0.8523  1.2215
H       -1.1547  -0.0440  2.2925
H       -2.0160  -2.0519  1.5157
H       -3.3871  -0.9764  1.4995
H       0.4895  -2.2783  1.1193
H       1.4491  -1.1101  1.6941
H       3.2762  -1.0307  -1.6702
H       3.2570  -0.0853  -0.1990
H       -0.7714  -2.2359  -1.0348
H       -1.1707  -0.9690  -1.9557
