27

Co      -0.0117  -0.0180  0.0050
Cl      -1.0905  1.6162  -1.2176
Cl      1.1593  1.4458  1.3647
C       2.6790  -0.7094  -0.8199
C       2.1213  -1.9124  -0.1092
C       -2.5233  -1.2970  -0.4360
C       -2.4194  -1.1583  1.0571
N       1.5371  0.0700  -1.3667
N       1.0659  -1.4973  0.8676
N       -1.1330  -1.2999  -0.9975
N       -1.4814  -0.0481  1.3332
H       2.8552  -2.4538  0.4680
H       1.7051  -2.5992  -0.8355
H       -3.0824  -0.4651  -0.8256
H       -2.9864  -2.2136  -0.7771
H       1.7166  1.0585  -1.3765
H       1.1871  -0.1875  -2.2704
H       -1.8912  0.8600  1.1995
H       -1.0940  -0.0563  2.2557
H       -2.0428  -2.0763  1.4859
H       -3.3674  -0.9435  1.5228
H       0.5185  -2.2857  1.1494
H       1.4151  -1.0274  1.6871
H       3.2974  -0.9689  -1.6660
H       3.2651  -0.1137  -0.1428
H       -0.7079  -2.2085  -0.9937
H       -1.1388  -0.9473  -1.9347
