27

Co      -0.0290  -0.0321  -0.0154
Cl      -1.1053  1.6387  -1.2268
Cl      1.1845  1.4764  1.3893
C       2.6986  -0.7215  -0.7991
C       2.1639  -1.9728  -0.0890
C       -2.5603  -1.3211  -0.4489
C       -2.4436  -1.1860  1.0715
N       1.5005  0.0759  -1.3236
N       1.1185  -1.5013  0.8483
N       -1.1458  -1.2498  -0.9627
N       -1.4714  -0.0498  1.2895
H       2.9236  -2.5683  0.4065
H       1.6863  -2.6049  -0.8305
H       -3.0787  -0.4610  -0.8424
H       -3.0507  -2.2188  -0.8029
H       1.7181  1.0603  -1.3456
H       1.2826  -0.1835  -2.2660
H       -1.9285  0.8401  1.1847
H       -1.0920  -0.0496  2.2196
H       -2.0510  -2.0756  1.5467
H       -3.3952  -0.9604  1.5289
H       0.6246  -2.2752  1.2559
H       1.5582  -1.0000  1.6072
H       3.3202  -1.0173  -1.6291
H       3.2725  -0.0789  -0.1529
H       -0.7332  -2.1671  -0.9315
H       -1.1661  -0.9610  -1.9223
