27

Co      0.0373  0.0382  -0.0004
Cl      -1.0824  1.6031  -1.2136
Cl      1.1420  1.4192  1.3490
C       2.6050  -0.7144  -0.8037
C       2.1021  -1.8917  -0.1146
C       -2.5048  -1.3022  -0.4288
C       -2.4283  -1.1462  1.0544
N       1.5010  0.0421  -1.3111
N       1.0707  -1.5030  0.8379
N       -1.1419  -1.3714  -1.0459
N       -1.5039  -0.0652  1.3846
H       2.9416  -2.3439  0.3924
H       1.6959  -2.6275  -0.7912
H       -3.0194  -0.4761  -0.8821
H       -3.0587  -2.2031  -0.6432
H       1.7631  1.0005  -1.4701
H       1.1833  -0.3106  -2.1964
H       -1.9472  0.8306  1.3064
H       -1.1704  -0.1346  2.3256
H       -2.0603  -2.0570  1.5036
H       -3.4195  -0.9763  1.4480
H       0.5269  -2.3114  1.0832
H       1.4792  -1.1503  1.6846
H       3.2972  -1.0102  -1.5755
H       3.1377  -0.0964  -0.1033
H       -0.8178  -2.3164  -1.0577
H       -1.2232  -1.0715  -1.9998
