27

Co      0.0085  -0.0046  -0.0059
Cl      -1.0729  1.5950  -1.2056
Cl      1.1421  1.4222  1.3468
C       2.6314  -0.6950  -0.8295
C       2.1189  -1.9313  -0.0832
C       -2.4840  -1.2974  -0.4517
C       -2.4009  -1.1354  1.0697
N       1.4468  0.0845  -1.2783
N       1.0242  -1.4705  0.8282
N       -1.1024  -1.3203  -1.0427
N       -1.4533  -0.0285  1.3624
H       2.9522  -2.4177  0.4003
H       1.6592  -2.6418  -0.7535
H       -2.9491  -0.4457  -0.9182
H       -3.0804  -2.1770  -0.6562
H       1.7057  1.0491  -1.3979
H       1.2469  -0.2318  -2.2136
H       -1.9343  0.8520  1.2919
H       -1.1412  -0.0738  2.3135
H       -2.0063  -2.0147  1.5597
H       -3.3974  -0.9709  1.4541
H       0.5121  -2.2646  1.1613
H       1.5079  -1.1189  1.6394
H       3.3119  -1.0192  -1.6012
H       3.1568  -0.0290  -0.1664
H       -0.8135  -2.2797  -1.0765
H       -1.1970  -1.0296  -2.0005
