27

Co      0.0258  0.0155  0.0148
Cl      -1.0992  1.6213  -1.2292
Cl      1.1335  1.3996  1.3334
C       2.6376  -0.7173  -0.8138
C       2.1028  -1.8780  -0.1152
C       -2.5092  -1.3020  -0.4225
C       -2.4388  -1.1459  1.0594
N       1.5478  0.0518  -1.3359
N       1.1013  -1.4930  0.8729
N       -1.1415  -1.3127  -1.0316
N       -1.5144  -0.0631  1.3745
H       2.9357  -2.3722  0.3578
H       1.6544  -2.5839  -0.7961
H       -3.0588  -0.4965  -0.8759
H       -3.0171  -2.2274  -0.6450
H       1.8012  1.0161  -1.4457
H       1.2583  -0.2683  -2.2392
H       -1.9554  0.8327  1.2713
H       -1.1905  -0.1107  2.3207
H       -2.0663  -2.0550  1.5118
H       -3.4284  -0.9732  1.4565
H       0.5941  -2.3109  1.1553
H       1.5306  -1.1090  1.6931
H       3.3258  -1.0506  -1.5789
H       3.1870  -0.1049  -0.1241
H       -0.8037  -2.2533  -1.0931
H       -1.2225  -0.9582  -1.9664
