27

Co      -0.0278  -0.0262  -0.0188
Cl      -1.0964  1.6251  -1.2151
Cl      1.1993  1.5015  1.4080
C       2.6969  -0.7328  -0.8147
C       2.1621  -1.9465  -0.1179
C       -2.5480  -1.2991  -0.4327
C       -2.4284  -1.1743  1.0618
N       1.5313  0.0500  -1.3192
N       1.0945  -1.4958  0.8322
N       -1.1665  -1.3352  -1.0195
N       -1.5114  -0.0429  1.3311
H       2.8951  -2.4639  0.4932
H       1.7689  -2.6534  -0.8360
H       -3.0879  -0.4466  -0.8076
H       -3.0440  -2.1965  -0.7785
H       1.7190  1.0411  -1.3112
H       1.1843  -0.1824  -2.2302
H       -1.9324  0.8572  1.1846
H       -1.1193  -0.0352  2.2554
H       -2.0290  -2.0851  1.4815
H       -3.3768  -0.9826  1.5333
H       0.5595  -2.2724  1.1622
H       1.4465  -0.9780  1.6261
H       3.3028  -0.9491  -1.6828
H       3.2844  -0.1434  -0.1284
H       -0.7488  -2.2503  -1.0023
H       -1.1851  -1.0044  -1.9647
