27

Co      -0.0363  -0.0264  -0.0125
Cl      -1.0964  1.6251  -1.2151
Cl      1.1993  1.5027  1.4080
C       2.7392  -0.7172  -0.8276
C       2.1738  -1.9837  -0.1025
C       -2.5692  -1.3149  -0.4526
C       -2.4298  -1.1860  1.0656
N       1.5243  0.0783  -1.3605
N       1.0757  -1.5082  0.8630
N       -1.1662  -1.3224  -1.0039
N       -1.4873  -0.0325  1.3165
H       2.8627  -2.5756  0.5010
H       1.7386  -2.6356  -0.8530
H       -3.0937  -0.4406  -0.8092
H       -3.0635  -2.1998  -0.8427
H       1.6857  1.0764  -1.3434
H       1.1915  -0.1587  -2.2749
H       -1.9150  0.8672  1.1866
H       -1.0738  -0.0252  2.2334
H       -2.0245  -2.0904  1.4947
H       -3.3627  -0.9725  1.5630
H       0.5178  -2.2696  1.1948
H       1.4313  -0.9932  1.6572
H       3.3341  -0.9260  -1.7094
H       3.3223  -0.1057  -0.1563
H       -0.7233  -2.2285  -0.9653
H       -1.1528  -0.9972  -1.9516
