27

Co      -0.0326  -0.0153  -0.0073
Cl      -1.0844  1.6111  -1.2053
Cl      1.1825  1.4732  1.3910
C       2.6784  -0.7025  -0.7880
C       2.1346  -1.9579  -0.0967
C       -2.5585  -1.3175  -0.4688
C       -2.3974  -1.1693  1.0482
N       1.4749  0.0676  -1.3317
N       1.0933  -1.4888  0.8444
N       -1.1538  -1.3064  -0.9916
N       -1.4293  -0.0345  1.2766
H       2.8853  -2.5740  0.3905
H       1.6483  -2.5724  -0.8516
H       -3.0555  -0.4477  -0.8676
H       -3.0918  -2.1994  -0.7872
H       1.6828  1.0487  -1.4139
H       1.2374  -0.2479  -2.2511
H       -1.8904  0.8573  1.2034
H       -1.0390  -0.0579  2.1990
H       -1.9831  -2.0605  1.5010
H       -3.3367  -0.9617  1.5380
H       0.5863  -2.2595  1.2343
H       1.5356  -1.0128  1.6132
H       3.3218  -0.9868  -1.6039
H       3.2260  -0.0510  -0.1281
H       -0.7612  -2.2300  -0.9218
H       -1.1585  -1.0506  -1.9617
