27

Co      0.0273  0.0380  0.0129
Cl      -1.0926  1.6218  -1.2269
Cl      1.1318  1.4048  1.3342
C       2.6512  -0.7034  -0.8182
C       2.1247  -1.9351  -0.0977
C       -2.5151  -1.3134  -0.4471
C       -2.4289  -1.1572  1.0605
N       1.4964  0.0713  -1.3423
N       1.0620  -1.5256  0.8718
N       -1.1277  -1.3531  -1.0218
N       -1.4805  -0.0539  1.3786
H       2.9240  -2.4564  0.4002
H       1.6788  -2.6199  -0.8043
H       -3.0103  -0.4638  -0.8830
H       -3.0657  -2.2010  -0.7121
H       1.7338  1.0366  -1.4837
H       1.1913  -0.2760  -2.2341
H       -1.9305  0.8414  1.3185
H       -1.1265  -0.1261  2.3129
H       -2.0574  -2.0623  1.5207
H       -3.4077  -0.9662  1.4738
H       0.4992  -2.3218  1.1189
H       1.4749  -1.1764  1.7195
H       3.3230  -0.9918  -1.6114
H       3.1888  -0.0672  -0.1374
H       -0.7752  -2.2877  -1.0059
H       -1.1730  -1.0619  -1.9789
