27

Co      0.0278  0.0289  0.0202
Cl      -1.0845  1.6086  -1.2257
Cl      1.1220  1.3896  1.3214
C       2.6157  -0.7069  -0.8071
C       2.1056  -1.9029  -0.0772
C       -2.5096  -1.3370  -0.4506
C       -2.4328  -1.1360  1.0575
N       1.4783  0.0748  -1.3097
N       1.0693  -1.4943  0.8368
N       -1.1251  -1.2930  -1.0177
N       -1.4388  -0.0658  1.3530
H       2.9621  -2.4165  0.3437
H       1.6319  -2.5833  -0.7687
H       -3.0238  -0.5268  -0.9406
H       -3.0505  -2.2553  -0.6353
H       1.7681  1.0265  -1.4863
H       1.2779  -0.2914  -2.2277
H       -1.9041  0.8287  1.3432
H       -1.1140  -0.1722  2.2963
H       -2.0914  -2.0255  1.5779
H       -3.4274  -0.9123  1.4261
H       0.5546  -2.3051  1.1263
H       1.5490  -1.1815  1.6700
H       3.2911  -1.1121  -1.5570
H       3.1718  -0.0380  -0.1741
H       -0.8092  -2.2400  -1.0580
H       -1.2177  -0.9940  -1.9715
