27

Co      0.0237  -0.0031  0.0158
Cl      -1.0856  1.6132  -1.2133
Cl      1.1423  1.4216  1.3477
C       2.6504  -0.6927  -0.8135
C       2.1041  -1.9155  -0.1082
C       -2.5063  -1.2914  -0.4529
C       -2.3913  -1.1467  1.0551
N       1.4708  0.0574  -1.3063
N       1.0316  -1.4491  0.8241
N       -1.1274  -1.3717  -1.0456
N       -1.4663  -0.0282  1.3544
H       2.8666  -2.4500  0.4309
H       1.6578  -2.5977  -0.8188
H       -2.9795  -0.4229  -0.8721
H       -3.0916  -2.1600  -0.7134
H       1.6800  1.0301  -1.4458
H       1.1599  -0.2917  -2.1963
H       -1.9177  0.8615  1.2307
H       -1.1414  -0.0433  2.3009
H       -1.9868  -2.0451  1.4985
H       -3.3624  -0.9824  1.4915
H       0.4666  -2.2234  1.1153
H       1.4535  -1.0676  1.6496
H       3.3113  -0.9607  -1.6201
H       3.1869  -0.0588  -0.1292
H       -0.8070  -2.3188  -1.0549
H       -1.1727  -1.0566  -1.9953
