27

Co      -0.0058  0.0333  0.0230
Cl      -1.0813  1.6071  -1.2141
Cl      1.1285  1.3929  1.3252
C       2.6677  -0.7023  -0.8271
C       2.1305  -1.9353  -0.0978
C       -2.5038  -1.2983  -0.4662
C       -2.3858  -1.1442  1.0490
N       1.4821  0.0617  -1.3022
N       1.0488  -1.4843  0.8354
N       -1.1126  -1.3441  -1.0182
N       -1.4426  -0.0322  1.3494
H       2.9533  -2.4619  0.3622
H       1.6497  -2.6147  -0.7870
H       -2.9557  -0.4404  -0.9383
H       -3.1099  -2.1728  -0.6653
H       1.7431  1.0216  -1.4787
H       1.2725  -0.3061  -2.2178
H       -1.9401  0.8442  1.3150
H       -1.1206  -0.1023  2.2957
H       -1.9597  -2.0297  1.5062
H       -3.3665  -1.0040  1.4781
H       0.5410  -2.2878  1.1553
H       1.5447  -1.1592  1.6530
H       3.3684  -1.0344  -1.5822
H       3.1786  -0.0324  -0.1546
H       -0.8159  -2.3010  -0.9768
H       -1.1658  -1.1120  -1.9946
