27

Co      0.0251  0.0114  0.0161
Cl      -1.0868  1.6153  -1.2206
Cl      1.1249  1.3996  1.3239
C       2.6246  -0.6934  -0.8368
C       2.1205  -1.9288  -0.0742
C       -2.5070  -1.3065  -0.4581
C       -2.3958  -1.1374  1.0563
N       1.4535  0.0996  -1.2911
N       1.0319  -1.5087  0.8632
N       -1.1154  -1.3276  -1.0217
N       -1.4286  -0.0406  1.3333
H       2.9722  -2.4140  0.3803
H       1.6550  -2.6391  -0.7436
H       -2.9772  -0.4631  -0.9348
H       -3.0932  -2.1953  -0.6536
H       1.7213  1.0613  -1.4163
H       1.2407  -0.2187  -2.2213
H       -1.9097  0.8413  1.2718
H       -1.1191  -0.0922  2.2840
H       -1.9987  -2.0229  1.5344
H       -3.3764  -0.9605  1.4724
H       0.5119  -2.3182  1.1492
H       1.5112  -1.2015  1.7002
H       3.2976  -1.0419  -1.6088
H       3.1668  -0.0278  -0.1872
H       -0.8244  -2.2847  -1.0281
H       -1.1873  -1.0560  -1.9862
