27

Co      0.0166  -0.0056  0.0297
Cl      -1.0901  1.6211  -1.2278
Cl      1.1248  1.3945  1.3250
C       2.6136  -0.6977  -0.8308
C       2.0811  -1.8594  -0.0989
C       -2.4753  -1.2993  -0.4425
C       -2.3911  -1.1105  1.0503
N       1.5108  0.0694  -1.3174
N       1.0497  -1.4830  0.8651
N       -1.1164  -1.3354  -1.0651
N       -1.4518  -0.0412  1.3711
H       2.9569  -2.3407  0.3205
H       1.6042  -2.5686  -0.7580
H       -2.9813  -0.4943  -0.9481
H       -3.0543  -2.2131  -0.5686
H       1.7836  1.0272  -1.4551
H       1.3075  -0.2673  -2.2440
H       -1.9168  0.8481  1.3102
H       -1.1608  -0.1152  2.3279
H       -2.0059  -2.0009  1.5287
H       -3.3935  -0.9574  1.4258
H       0.5727  -2.3214  1.1464
H       1.5378  -1.1784  1.6971
H       3.3253  -1.1019  -1.5520
H       3.1469  -0.0449  -0.1663
H       -0.8554  -2.3038  -1.1534
H       -1.2248  -0.9961  -2.0043
