27

Co      0.0044  0.0179  -0.0031
Cl      -1.0833  1.5992  -1.2049
Cl      1.1493  1.4227  1.3504
C       2.6369  -0.7051  -0.8338
C       2.1239  -1.9169  -0.1146
C       -2.5175  -1.2818  -0.4379
C       -2.3893  -1.1390  1.0474
N       1.5079  0.0731  -1.3049
N       1.0791  -1.5170  0.9028
N       -1.1508  -1.3608  -1.0565
N       -1.4848  -0.0349  1.3456
H       2.9617  -2.3789  0.3850
H       1.6844  -2.6541  -0.7715
H       -3.0361  -0.4538  -0.8865
H       -3.0715  -2.1845  -0.6450
H       1.7482  1.0451  -1.3739
H       1.2057  -0.2059  -2.2177
H       -1.9436  0.8524  1.2398
H       -1.1452  -0.0630  2.2852
H       -1.9588  -2.0445  1.4537
H       -3.3585  -1.0100  1.5051
H       0.5813  -2.3314  1.2078
H       1.5163  -1.1157  1.7104
H       3.3310  -0.9583  -1.6224
H       3.1602  -0.0962  -0.1158
H       -0.8282  -2.3081  -1.0607
H       -1.2159  -1.0572  -2.0095
