27

Co      -0.0016  -0.0134  -0.0083
Cl      -1.0959  1.6145  -1.2144
Cl      1.1845  1.4761  1.3932
C       2.7022  -0.7229  -0.8091
C       2.1383  -1.9314  -0.1238
C       -2.5607  -1.3116  -0.4298
C       -2.4515  -1.1788  1.0646
N       1.5433  0.0441  -1.3452
N       1.0947  -1.4651  0.8416
N       -1.1761  -1.3154  -1.0158
N       -1.5240  -0.0560  1.3350
H       2.8567  -2.4875  0.4676
H       1.7135  -2.6075  -0.8535
H       -3.1203  -0.4718  -0.8070
H       -3.0332  -2.2218  -0.7747
H       1.7276  1.0315  -1.3858
H       1.1863  -0.2356  -2.2386
H       -1.9407  0.8464  1.1772
H       -1.1489  -0.0465  2.2655
H       -2.0687  -2.0932  1.4936
H       -3.4024  -0.9721  1.5268
H       0.5413  -2.2319  1.1671
H       1.4598  -0.9621  1.6341
H       3.3327  -0.9468  -1.6565
H       3.2699  -0.1297  -0.1111
H       -0.7593  -2.2299  -1.0372
H       -1.2022  -0.9489  -1.9487
