27

Co      -0.0219  0.0063  -0.0148
Cl      -1.0879  1.6044  -1.2083
Cl      1.1873  1.4738  1.3929
C       2.7340  -0.7156  -0.8078
C       2.1720  -1.9963  -0.1117
C       -2.5734  -1.3305  -0.4524
C       -2.4445  -1.1815  1.0672
N       1.5066  0.0624  -1.3361
N       1.1037  -1.4791  0.8595
N       -1.1784  -1.3215  -1.0296
N       -1.4957  -0.0369  1.3391
H       2.8550  -2.6080  0.4806
H       1.7155  -2.6301  -0.8659
H       -3.1169  -0.4695  -0.8145
H       -3.0592  -2.2246  -0.8229
H       1.6764  1.0534  -1.3830
H       1.1498  -0.2247  -2.2285
H       -1.9212  0.8679  1.2389
H       -1.0763  -0.0619  2.2527
H       -2.0607  -2.0882  1.5107
H       -3.3863  -0.9555  1.5428
H       0.5349  -2.2183  1.2276
H       1.4839  -0.9458  1.6295
H       3.3475  -0.8845  -1.6892
H       3.2920  -0.1080  -0.1117
H       -0.7333  -2.2258  -1.0169
H       -1.1891  -0.9763  -1.9695
