27

Co      -0.0246  -0.0085  -0.0175
Cl      -1.0943  1.6208  -1.2130
Cl      1.1972  1.4962  1.4038
C       2.7238  -0.7207  -0.8173
C       2.1850  -2.0017  -0.1029
C       -2.5734  -1.3209  -0.4542
C       -2.4283  -1.1829  1.0644
N       1.4946  0.0732  -1.3189
N       1.0908  -1.5048  0.8531
N       -1.1786  -1.3491  -1.0293
N       -1.4870  -0.0297  1.3264
H       2.8807  -2.5765  0.5082
H       1.7581  -2.6651  -0.8465
H       -3.0924  -0.4434  -0.8112
H       -3.0867  -2.1992  -0.8287
H       1.6668  1.0669  -1.3299
H       1.1370  -0.1773  -2.2221
H       -1.9158  0.8708  1.2111
H       -1.0703  -0.0379  2.2416
H       -2.0279  -2.0869  1.4966
H       -3.3646  -0.9689  1.5551
H       0.5199  -2.2528  1.1963
H       1.4520  -0.9841  1.6411
H       3.3117  -0.8936  -1.7164
H       3.3055  -0.1149  -0.1378
H       -0.7443  -2.2579  -0.9908
H       -1.1798  -1.0289  -1.9787
