27

Co      -0.0017  0.0077  -0.0018
Cl      -1.0994  1.6337  -1.2252
Cl      1.1728  1.4658  1.3792
C       2.6923  -0.7252  -0.7948
C       2.1595  -1.9659  -0.0975
C       -2.5514  -1.3183  -0.4500
C       -2.4380  -1.1893  1.0637
N       1.5014  0.0600  -1.3415
N       1.0887  -1.5136  0.8205
N       -1.1525  -1.3490  -0.9960
N       -1.4937  -0.0446  1.3462
H       2.8671  -2.5407  0.4927
H       1.7526  -2.6204  -0.8622
H       -3.0526  -0.4314  -0.8046
H       -3.0694  -2.1870  -0.8451
H       1.6930  1.0427  -1.4109
H       1.1403  -0.2411  -2.2279
H       -1.9195  0.8573  1.2447
H       -1.0849  -0.0736  2.2627
H       -2.0628  -2.0976  1.5121
H       -3.3870  -0.9637  1.5243
H       0.4922  -2.2720  1.0977
H       1.4237  -1.0476  1.6500
H       3.2710  -0.9678  -1.6754
H       3.2980  -0.1120  -0.1451
H       -0.7151  -2.2544  -0.9265
H       -1.1420  -1.0575  -1.9548
