27

Co      0.0232  -0.0085  0.0156
Cl      -1.0946  1.6178  -1.2225
Cl      1.1313  1.4061  1.3291
C       2.6228  -0.7132  -0.8350
C       2.1151  -1.8894  -0.0621
C       -2.5021  -1.2981  -0.4457
C       -2.4062  -1.1453  1.0668
N       1.5009  0.1107  -1.3125
N       1.0652  -1.5121  0.8559
N       -1.1299  -1.3198  -1.0438
N       -1.4800  -0.0197  1.3591
H       2.9841  -2.3808  0.3607
H       1.6487  -2.5901  -0.7385
H       -2.9686  -0.4421  -0.9003
H       -3.1046  -2.1740  -0.6534
H       1.7920  1.0701  -1.3962
H       1.3190  -0.1745  -2.2606
H       -1.9700  0.8529  1.2722
H       -1.1820  -0.0564  2.3155
H       -1.9915  -2.0177  1.5554
H       -3.4069  -1.0005  1.4551
H       0.5635  -2.3391  1.1284
H       1.5262  -1.1971  1.6989
H       3.2542  -1.1624  -1.6041
H       3.2313  -0.0505  -0.2381
H       -0.8471  -2.2816  -1.0981
H       -1.2228  -1.0079  -1.9951
