27

Co      0.0044  0.0195  -0.0031
Cl      -1.0788  1.6022  -1.2064
Cl      1.1463  1.4227  1.3519
C       2.5944  -0.7062  -0.8031
C       2.0973  -1.8865  -0.1119
C       -2.4936  -1.2818  -0.4380
C       -2.3819  -1.1330  1.0416
N       1.4987  0.0597  -1.3169
N       1.0842  -1.5288  0.8751
N       -1.1327  -1.3684  -1.0475
N       -1.4712  -0.0410  1.3546
H       2.9524  -2.3501  0.3602
H       1.6739  -2.6119  -0.7893
H       -3.0033  -0.4509  -0.8883
H       -3.0565  -2.1786  -0.6466
H       1.7531  1.0245  -1.4217
H       1.2080  -0.2536  -2.2222
H       -1.9225  0.8524  1.2829
H       -1.1183  -0.1016  2.2869
H       -1.9752  -2.0401  1.4655
H       -3.3599  -0.9891  1.4742
H       0.5876  -2.3533  1.1537
H       1.5040  -1.1439  1.7004
H       3.2851  -1.0109  -1.5738
H       3.1312  -0.0897  -0.1062
H       -0.8056  -2.3127  -1.0236
H       -1.1946  -1.0930  -2.0095
