27

Co      -0.0030  0.0037  0.0007
Cl      -1.1027  1.6295  -1.2225
Cl      1.1745  1.4645  1.3753
C       2.7370  -0.7231  -0.8332
C       2.1908  -2.0033  -0.0936
C       -2.5826  -1.3228  -0.4579
C       -2.4452  -1.1965  1.0691
N       1.4906  0.0693  -1.2985
N       1.0673  -1.4788  0.8204
N       -1.1637  -1.3139  -0.9781
N       -1.4834  -0.0483  1.3044
H       2.9178  -2.5658  0.4825
H       1.7414  -2.6737  -0.8161
H       -3.0651  -0.4417  -0.8518
H       -3.1175  -2.1982  -0.8010
H       1.7006  1.0514  -1.3731
H       1.2095  -0.2202  -2.2139
H       -1.9528  0.8328  1.1817
H       -1.1301  -0.0381  2.2454
H       -2.0305  -2.0888  1.5190
H       -3.3902  -0.9961  1.5494
H       0.5037  -2.2334  1.1685
H       1.4938  -1.0421  1.6182
H       3.3551  -0.9574  -1.6881
H       3.2975  -0.0813  -0.1690
H       -0.7788  -2.2413  -0.9310
H       -1.1748  -1.0418  -1.9443
