27

Co      -0.0009  -0.0119  -0.0011
Cl      -1.1103  1.6437  -1.2319
Cl      1.1787  1.4672  1.3816
C       2.6835  -0.7249  -0.8037
C       2.1546  -1.9490  -0.1182
C       -2.5625  -1.3163  -0.4354
C       -2.4333  -1.1675  1.0557
N       1.5192  0.0525  -1.3094
N       1.1221  -1.4983  0.8652
N       -1.1805  -1.3359  -1.0277
N       -1.4943  -0.0536  1.3231
H       2.8959  -2.4904  0.4528
H       1.7296  -2.6332  -0.8406
H       -3.1224  -0.4811  -0.8215
H       -3.0430  -2.2289  -0.7595
H       1.7100  1.0395  -1.3378
H       1.1507  -0.2089  -2.2051
H       -1.9067  0.8536  1.1865
H       -1.1085  -0.0609  2.2490
H       -2.0538  -2.0839  1.4830
H       -3.3774  -0.9508  1.5290
H       0.5806  -2.2701  1.1977
H       1.4949  -0.9913  1.6532
H       3.2980  -0.9308  -1.6708
H       3.2645  -0.1396  -0.1091
H       -0.7669  -2.2506  -1.0351
H       -1.2044  -0.9801  -1.9638
