27

Co      0.0253  0.0116  0.0254
Cl      -1.0868  1.6174  -1.2227
Cl      1.1249  1.3973  1.3218
C       2.5999  -0.7111  -0.8291
C       2.1087  -1.8833  -0.0947
C       -2.4868  -1.2949  -0.4454
C       -2.3819  -1.1173  1.0442
N       1.4719  0.0608  -1.2509
N       1.0424  -1.4787  0.8169
N       -1.1229  -1.3612  -1.0538
N       -1.4414  -0.0448  1.3510
H       2.9880  -2.3064  0.3798
H       1.6832  -2.6423  -0.7370
H       -2.9715  -0.4765  -0.9467
H       -3.0861  -2.1961  -0.5759
H       1.7586  1.0155  -1.4017
H       1.2366  -0.2683  -2.1703
H       -1.9137  0.8396  1.2844
H       -1.1543  -0.1084  2.3092
H       -1.9866  -2.0093  1.5098
H       -3.3749  -0.9665  1.4407
H       0.5402  -2.3034  1.0917
H       1.5171  -1.1801  1.6598
H       3.2787  -1.0765  -1.5884
H       3.1528  -0.0665  -0.1697
H       -0.8654  -2.3302  -1.0900
H       -1.2227  -1.0736  -2.0118
