27

Co      0.0348  0.0160  0.0057
Cl      -1.0993  1.6238  -1.2221
Cl      1.1343  1.4030  1.3317
C       2.6333  -0.7051  -0.8446
C       2.1311  -1.9264  -0.1034
C       -2.5108  -1.2822  -0.4385
C       -2.4025  -1.1441  1.0616
N       1.4842  0.0760  -1.2643
N       1.0676  -1.4995  0.8826
N       -1.1396  -1.3650  -1.0587
N       -1.4973  -0.0352  1.3602
H       3.0114  -2.3707  0.3494
H       1.6630  -2.6692  -0.7349
H       -2.9747  -0.4357  -0.9174
H       -3.1283  -2.1624  -0.5993
H       1.7626  1.0367  -1.3894
H       1.2528  -0.2324  -2.1913
H       -1.9936  0.8331  1.2425
H       -1.2239  -0.0502  2.3280
H       -1.9610  -2.0308  1.4974
H       -3.3974  -1.0427  1.4768
H       0.5762  -2.3164  1.2001
H       1.5725  -1.1722  1.6936
H       3.3531  -1.0025  -1.5967
H       3.1357  -0.0631  -0.1391
H       -0.8920  -2.3410  -1.0978
H       -1.2441  -1.0769  -2.0173
