27

Co      -0.0163  -0.0052  -0.0348
Cl      -1.0898  1.6218  -1.2124
Cl      1.1942  1.4973  1.4074
C       2.6559  -0.7190  -0.8061
C       2.1557  -1.9674  -0.1060
C       -2.5401  -1.3079  -0.4405
C       -2.4322  -1.1734  1.0647
N       1.4816  0.0580  -1.3051
N       1.0862  -1.5297  0.8459
N       -1.1470  -1.3302  -1.0015
N       -1.4847  -0.0588  1.3244
H       2.9608  -2.4648  0.4189
H       1.7323  -2.6726  -0.8044
H       -3.0401  -0.4516  -0.8616
H       -3.0778  -2.1964  -0.7335
H       1.7149  1.0353  -1.3638
H       1.2240  -0.2189  -2.2307
H       -1.9399  0.8315  1.2360
H       -1.1106  -0.0855  2.2549
H       -2.0383  -2.0727  1.5135
H       -3.3963  -0.9837  1.5065
H       0.5808  -2.3199  1.1958
H       1.5096  -1.0775  1.6369
H       3.3283  -0.9591  -1.6124
H       3.1796  -0.0867  -0.1081
H       -0.7751  -2.2623  -0.9496
H       -1.1921  -1.0792  -1.9736
