27

Co      -0.0314  -0.0112  -0.0114
Cl      -1.0857  1.6124  -1.2065
Cl      1.1838  1.4744  1.3934
C       2.6683  -0.7030  -0.8051
C       2.1271  -1.9387  -0.1144
C       -2.5427  -1.3041  -0.4542
C       -2.3965  -1.1564  1.0464
N       1.5027  0.0594  -1.3379
N       1.0915  -1.5072  0.8770
N       -1.1546  -1.3281  -1.0162
N       -1.4532  -0.0414  1.3015
H       2.9166  -2.4989  0.3683
H       1.6528  -2.5966  -0.8303
H       -3.0563  -0.4588  -0.8807
H       -3.0773  -2.2014  -0.7195
H       1.7177  1.0393  -1.4076
H       1.2538  -0.2410  -2.2586
H       -1.9100  0.8508  1.2197
H       -1.0776  -0.0700  2.2294
H       -1.9763  -2.0556  1.4761
H       -3.3468  -0.9819  1.5241
H       0.6097  -2.3037  1.2463
H       1.5385  -1.0490  1.6515
H       3.3585  -0.9689  -1.5906
H       3.1824  -0.0674  -0.1040
H       -0.7890  -2.2621  -0.9752
H       -1.1837  -1.0556  -1.9797
