27

Co      -0.0071  -0.0354  -0.0010
Cl      -1.0957  1.6314  -1.2211
Cl      1.1680  1.4658  1.3731
C       2.7015  -0.7049  -0.8265
C       2.1583  -1.9744  -0.0923
C       -2.5349  -1.2984  -0.4517
C       -2.4118  -1.1727  1.0677
N       1.4731  0.0860  -1.3154
N       1.0341  -1.4807  0.8323
N       -1.1256  -1.3181  -0.9911
N       -1.4605  -0.0306  1.3164
H       2.8424  -2.5280  0.5497
H       1.7539  -2.6591  -0.8319
H       -3.0433  -0.4184  -0.8082
H       -3.0356  -2.1771  -0.8496
H       1.6275  1.0830  -1.3094
H       1.1086  -0.1517  -2.2223
H       -1.8778  0.8716  1.1550
H       -1.0726  -0.0016  2.2417
H       -2.0249  -2.0803  1.5055
H       -3.3473  -0.9430  1.5528
H       0.4398  -2.2287  1.1373
H       1.3765  -0.9933  1.6482
H       3.2686  -0.8990  -1.7345
H       3.3020  -0.0987  -0.1664
H       -0.6969  -2.2259  -0.9568
H       -1.1104  -0.9877  -1.9379
