27

Co      -0.0364  -0.0183  -0.0004
Cl      -1.0947  1.6164  -1.2127
Cl      1.1711  1.4509  1.3716
C       2.7450  -0.7111  -0.8160
C       2.1644  -1.9787  -0.1109
C       -2.5587  -1.2989  -0.4532
C       -2.4191  -1.1851  1.0630
N       1.5220  0.0695  -1.3466
N       1.0924  -1.4686  0.8614
N       -1.1440  -1.2765  -0.9739
N       -1.4809  -0.0292  1.3012
H       2.8374  -2.6014  0.4823
H       1.7034  -2.6092  -0.8684
H       -3.0929  -0.4289  -0.8043
H       -3.0267  -2.1919  -0.8602
H       1.6762  1.0675  -1.3495
H       1.1861  -0.1871  -2.2549
H       -1.9154  0.8676  1.1531
H       -1.0776  -0.0012  2.2212
H       -2.0005  -2.0924  1.4805
H       -3.3468  -0.9790  1.5771
H       0.5461  -2.2169  1.2436
H       1.4757  -0.9251  1.6255
H       3.3484  -0.9051  -1.6979
H       3.3164  -0.1055  -0.1316
H       -0.6896  -2.1771  -0.9224
H       -1.1167  -0.9541  -1.9220
