27

Co      -0.0329  -0.0134  -0.0012
Cl      -1.0976  1.6275  -1.2263
Cl      1.1785  1.4679  1.3786
C       2.6870  -0.7268  -0.8309
C       2.1645  -1.9480  -0.0960
C       -2.5497  -1.3289  -0.4451
C       -2.4256  -1.1479  1.0547
N       1.5236  0.0766  -1.3103
N       1.1039  -1.5203  0.8732
N       -1.1652  -1.2944  -1.0243
N       -1.4554  -0.0526  1.3148
H       2.9648  -2.4635  0.4150
H       1.7167  -2.6471  -0.7869
H       -3.1101  -0.5221  -0.8908
H       -3.0371  -2.2621  -0.6913
H       1.7556  1.0566  -1.3221
H       1.2699  -0.1616  -2.2489
H       -1.8952  0.8488  1.2525
H       -1.0761  -0.1061  2.2417
H       -2.0470  -2.0476  1.5182
H       -3.3822  -0.9303  1.5017
H       0.6211  -2.3251  1.2237
H       1.5351  -1.0654  1.6604
H       3.3208  -1.0225  -1.6532
H       3.2655  -0.1047  -0.1688
H       -0.7817  -2.2207  -1.0476
H       -1.2185  -0.9635  -1.9681
