27

Co      -0.0334  -0.0020  -0.0063
Cl      -1.0757  1.5849  -1.1939
Cl      1.1775  1.4683  1.3788
C       2.7260  -0.7156  -0.8474
C       2.1778  -1.9831  -0.0806
C       -2.5737  -1.3147  -0.4651
C       -2.4123  -1.1777  1.0585
N       1.4963  0.0978  -1.3195
N       1.0490  -1.4897  0.8418
N       -1.1614  -1.2925  -0.9884
N       -1.4518  -0.0286  1.2837
H       2.9160  -2.5353  0.4885
H       1.7312  -2.6649  -0.7943
H       -3.0775  -0.4500  -0.8654
H       -3.0940  -2.2039  -0.7891
H       1.7068  1.0834  -1.3377
H       1.2376  -0.1489  -2.2548
H       -1.9227  0.8542  1.1860
H       -1.0741  -0.0290  2.2118
H       -1.9797  -2.0665  1.4994
H       -3.3481  -0.9841  1.5622
H       0.5116  -2.2606  1.1891
H       1.4669  -1.0421  1.6392
H       3.3291  -0.9858  -1.7034
H       3.3092  -0.0731  -0.2034
H       -0.7641  -2.2146  -0.9368
H       -1.1679  -1.0193  -1.9543
