27

Co      -0.0002  0.0061  -0.0087
Cl      -1.0938  1.6120  -1.2105
Cl      1.1859  1.4813  1.3925
C       2.7331  -0.7172  -0.8353
C       2.1775  -1.9946  -0.0927
C       -2.5861  -1.3275  -0.4582
C       -2.4484  -1.1961  1.0717
N       1.4993  0.0771  -1.3283
N       1.0621  -1.4871  0.8382
N       -1.1802  -1.3378  -1.0112
N       -1.4998  -0.0393  1.3240
H       2.9092  -2.5687  0.4653
H       1.7159  -2.6525  -0.8187
H       -3.0640  -0.4406  -0.8489
H       -3.1422  -2.1938  -0.7890
H       1.7114  1.0580  -1.4090
H       1.2235  -0.2225  -2.2418
H       -1.9716  0.8407  1.2096
H       -1.1421  -0.0402  2.2630
H       -2.0290  -2.0839  1.5237
H       -3.4014  -1.0096  1.5410
H       0.4946  -2.2459  1.1691
H       1.4841  -1.0607  1.6425
H       3.3655  -0.9650  -1.6738
H       3.2842  -0.0691  -0.1689
H       -0.8070  -2.2704  -0.9876
H       -1.2062  -1.0491  -1.9717
