27

Co      0.0131  0.0157  -0.0002
Cl      -1.0821  1.6089  -1.2197
Cl      1.1276  1.3920  1.3267
C       2.6106  -0.6947  -0.8203
C       2.1124  -1.9198  -0.1132
C       -2.4700  -1.2937  -0.4340
C       -2.3958  -1.1098  1.0572
N       1.4716  0.0695  -1.2773
N       1.0741  -1.5009  0.8978
N       -1.1120  -1.3441  -1.0816
N       -1.4630  -0.0403  1.3926
H       2.9493  -2.3770  0.3879
H       1.6711  -2.6566  -0.7682
H       -3.0128  -0.4922  -0.9037
H       -3.0029  -2.2158  -0.6174
H       1.7053  1.0387  -1.3694
H       1.1543  -0.2273  -2.1827
H       -1.8935  0.8657  1.3271
H       -1.1138  -0.1174  2.3271
H       -2.0335  -2.0199  1.5110
H       -3.3860  -0.9315  1.4481
H       0.5671  -2.3032  1.2149
H       1.5188  -1.0937  1.6988
H       3.3067  -0.9217  -1.6157
H       3.1237  -0.0892  -0.0938
H       -0.7857  -2.2868  -1.1448
H       -1.2088  -0.9882  -2.0153
