27

Co      -0.0320  0.0024  -0.0020
Cl      -1.0939  1.6134  -1.2118
Cl      1.1702  1.4469  1.3698
C       2.6969  -0.7241  -0.8086
C       2.1517  -1.9401  -0.1192
C       -2.5513  -1.2940  -0.4410
C       -2.4090  -1.1690  1.0484
N       1.5444  0.0591  -1.3390
N       1.1264  -1.5076  0.8804
N       -1.1639  -1.3126  -1.0054
N       -1.4929  -0.0368  1.3152
H       2.8938  -2.4967  0.4353
H       1.7167  -2.6139  -0.8461
H       -3.1063  -0.4522  -0.8204
H       -3.0280  -2.2025  -0.7794
H       1.7367  1.0469  -1.3500
H       1.1974  -0.1941  -2.2437
H       -1.9242  0.8625  1.1943
H       -1.0895  -0.0445  2.2324
H       -1.9889  -2.0835  1.4486
H       -3.3472  -0.9893  1.5515
H       0.6118  -2.2918  1.2259
H       1.5031  -0.9886  1.6599
H       3.3190  -0.9517  -1.6636
H       3.2764  -0.1366  -0.1157
H       -0.7326  -2.2211  -0.9587
H       -1.1629  -0.9979  -1.9551
