27

Co      0.0241  0.0094  0.0150
Cl      -1.0882  1.6031  -1.2160
Cl      1.1249  1.3941  1.3217
C       2.6599  -0.7076  -0.8466
C       2.1253  -1.9119  -0.0802
C       -2.5064  -1.2926  -0.4399
C       -2.4178  -1.1527  1.0694
N       1.5166  0.1050  -1.3358
N       1.0488  -1.5026  0.8748
N       -1.1264  -1.3202  -1.0356
N       -1.4995  -0.0248  1.3761
H       2.9228  -2.4126  0.4376
H       1.6859  -2.6215  -0.7673
H       -3.0092  -0.4417  -0.8600
H       -3.0528  -2.1805  -0.7130
H       1.7543  1.0764  -1.3935
H       1.2236  -0.1688  -2.2543
H       -1.9565  0.8609  1.2596
H       -1.1682  -0.0477  2.3195
H       -2.0160  -2.0470  1.5242
H       -3.4006  -0.9899  1.4873
H       0.4944  -2.3040  1.1230
H       1.4503  -1.1396  1.7223
H       3.2811  -1.0430  -1.6653
H       3.2570  -0.0816  -0.2051
H       -0.7825  -2.2580  -1.0766
H       -1.1842  -0.9739  -1.9753
