27

Co      0.0053  0.0360  -0.0022
Cl      -1.0724  1.5875  -1.2000
Cl      1.1399  1.4108  1.3445
C       2.6064  -0.7099  -0.8059
C       2.0982  -1.8847  -0.1137
C       -2.4936  -1.2809  -0.4362
C       -2.3930  -1.1404  1.0443
N       1.5125  0.0542  -1.3288
N       1.0796  -1.5205  0.8641
N       -1.1290  -1.3582  -1.0356
N       -1.4868  -0.0447  1.3657
H       2.9460  -2.3501  0.3675
H       1.6784  -2.6100  -0.7930
H       -3.0033  -0.4490  -0.8846
H       -3.0501  -2.1777  -0.6548
H       1.7715  1.0162  -1.4520
H       1.2190  -0.2747  -2.2286
H       -1.9436  0.8459  1.2985
H       -1.1348  -0.1099  2.2979
H       -1.9853  -2.0484  1.4673
H       -3.3746  -1.0019  1.4723
H       0.5729  -2.3432  1.1326
H       1.4957  -1.1457  1.6958
H       3.3016  -1.0210  -1.5710
H       3.1404  -0.0916  -0.1080
H       -0.7946  -2.2998  -1.0024
H       -1.1882  -1.0911  -2.0003
