27

Co      -0.0156  -0.0276  0.0031
Cl      -1.1067  1.6514  -1.2326
Cl      1.1801  1.4830  1.3883
C       2.6857  -0.7209  -0.8120
C       2.1449  -1.9354  -0.1179
C       -2.5462  -1.2998  -0.4380
C       -2.4226  -1.1746  1.0505
N       1.5230  0.0453  -1.3382
N       1.0666  -1.5068  0.8323
N       -1.1397  -1.3173  -0.9579
N       -1.4679  -0.0702  1.2937
H       2.8745  -2.4574  0.4903
H       1.7575  -2.6390  -0.8461
H       -3.0866  -0.4562  -0.8268
H       -3.0136  -2.2100  -0.7979
H       1.6989  1.0364  -1.3534
H       1.1707  -0.2116  -2.2400
H       -1.8779  0.8364  1.1447
H       -1.0836  -0.0574  2.2198
H       -2.0427  -2.0978  1.4663
H       -3.3535  -0.9477  1.5447
H       0.5183  -2.2915  1.1220
H       1.4117  -1.0321  1.6526
H       3.3038  -0.9477  -1.6677
H       3.2620  -0.1248  -0.1255
H       -0.7109  -2.2259  -0.8922
H       -1.1196  -1.0227  -1.9156
