27

Co      0.0237  -0.0079  0.0166
Cl      -1.1002  1.6251  -1.2247
Cl      1.1317  1.3978  1.3300
C       2.6548  -0.6947  -0.8142
C       2.1112  -1.9196  -0.1015
C       -2.5224  -1.2955  -0.4447
C       -2.4079  -1.1515  1.0600
N       1.4934  0.0796  -1.3163
N       1.0831  -1.4716  0.8842
N       -1.1345  -1.3081  -1.0232
N       -1.4734  -0.0345  1.3317
H       2.8953  -2.4763  0.3816
H       1.6258  -2.5823  -0.8080
H       -3.0359  -0.4498  -0.8641
H       -3.0534  -2.1918  -0.7170
H       1.7108  1.0550  -1.4047
H       1.2065  -0.2287  -2.2253
H       -1.9257  0.8553  1.1959
H       -1.1465  -0.0344  2.2781
H       -2.0030  -2.0503  1.5055
H       -3.3743  -0.9750  1.5063
H       0.5579  -2.2553  1.2186
H       1.5301  -1.0526  1.6780
H       3.3149  -0.9791  -1.6194
H       3.2028  -0.0696  -0.1332
H       -0.7910  -2.2467  -1.0570
H       -1.1826  -0.9646  -1.9632
