27

Co      0.0237  -0.0083  0.0168
Cl      -1.0889  1.6178  -1.2245
Cl      1.1236  1.3944  1.3246
C       2.6312  -0.6859  -0.8174
C       2.0979  -1.9112  -0.0923
C       -2.4943  -1.3041  -0.4460
C       -2.4051  -1.1318  1.0602
N       1.4735  0.0877  -1.3215
N       1.0480  -1.4810  0.8780
N       -1.1086  -1.3034  -1.0277
N       -1.4432  -0.0420  1.3491
H       2.8874  -2.4434  0.4049
H       1.6344  -2.5922  -0.7941
H       -3.0211  -0.4774  -0.8848
H       -3.0110  -2.2144  -0.7011
H       1.6885  1.0616  -1.4108
H       1.1816  -0.2215  -2.2300
H       -1.8760  0.8607  1.2511
H       -1.1022  -0.0800  2.2875
H       -2.0437  -2.0351  1.5321
H       -3.3779  -0.9178  1.4759
H       0.5084  -2.2699  1.1749
H       1.4766  -1.0891  1.6962
H       3.2864  -0.9788  -1.6230
H       3.1831  -0.0567  -0.1451
H       -0.7585  -2.2370  -1.0747
H       -1.1643  -0.9486  -1.9634
