27

Co      0.0337  -0.0097  0.0052
Cl      -1.0787  1.5991  -1.2113
Cl      1.1337  1.4087  1.3394
C       2.5950  -0.6952  -0.7896
C       2.0803  -1.8846  -0.0891
C       -2.4924  -1.3063  -0.4410
C       -2.4078  -1.1326  1.0608
N       1.4614  0.0753  -1.3037
N       1.0634  -1.4585  0.8324
N       -1.1245  -1.3183  -1.0518
N       -1.4599  -0.0364  1.3585
H       2.8798  -2.4096  0.4021
H       1.6347  -2.5646  -0.8011
H       -3.0134  -0.4712  -0.8672
H       -3.0307  -2.2049  -0.6926
H       1.6977  1.0422  -1.4207
H       1.1720  -0.2544  -2.2057
H       -1.8926  0.8650  1.2608
H       -1.1210  -0.0801  2.2968
H       -2.0532  -2.0298  1.5485
H       -3.3930  -0.9212  1.4517
H       0.5177  -2.2410  1.1308
H       1.4792  -1.0563  1.6512
H       3.2287  -1.0274  -1.5954
H       3.1756  -0.0657  -0.1412
H       -0.7843  -2.2557  -1.1148
H       -1.2028  -0.9582  -1.9860
