27

Co      0.0336  0.0126  0.0116
Cl      -1.0954  1.6220  -1.2289
Cl      1.1349  1.4109  1.3307
C       2.6409  -0.7156  -0.8299
C       2.1478  -1.9426  -0.0825
C       -2.5249  -1.3205  -0.4418
C       -2.4265  -1.1434  1.0633
N       1.4676  0.0870  -1.2640
N       1.0650  -1.4946  0.8454
N       -1.1455  -1.3331  -1.0456
N       -1.4651  -0.0477  1.3551
H       2.9494  -2.4126  0.4629
H       1.7312  -2.6764  -0.7598
H       -3.0503  -0.4927  -0.8804
H       -3.0548  -2.2283  -0.6869
H       1.7106  1.0567  -1.3437
H       1.1476  -0.1916  -2.1728
H       -1.9026  0.8512  1.2638
H       -1.1249  -0.0943  2.2953
H       -2.0677  -2.0443  1.5393
H       -3.4007  -0.9265  1.4754
H       0.5021  -2.2772  1.1238
H       1.4753  -1.1104  1.6784
H       3.2484  -0.9924  -1.6786
H       3.2366  -0.0982  -0.1773
H       -0.7979  -2.2684  -1.0940
H       -1.2181  -0.9858  -1.9850
