27

Co      -0.0009  -0.0195  0.0006
Cl      -1.0993  1.6237  -1.2205
Cl      1.1666  1.4513  1.3664
C       2.6666  -0.7197  -0.8174
C       2.1466  -1.9338  -0.1032
C       -2.5470  -1.3040  -0.4365
C       -2.4114  -1.1538  1.0546
N       1.5102  0.0794  -1.3012
N       1.1036  -1.4962  0.8733
N       -1.1715  -1.3278  -1.0424
N       -1.4820  -0.0342  1.3216
H       2.8961  -2.4517  0.4753
H       1.7320  -2.6396  -0.8118
H       -3.1096  -0.4713  -0.8207
H       -3.0310  -2.2170  -0.7518
H       1.7033  1.0677  -1.2907
H       1.1397  -0.1459  -2.2082
H       -1.8949  0.8716  1.1754
H       -1.0994  -0.0322  2.2469
H       -2.0210  -2.0660  1.4799
H       -3.3561  -0.9466  1.5317
H       0.5608  -2.2731  1.1901
H       1.4651  -0.9956  1.6711
H       3.2509  -0.9489  -1.7013
H       3.2812  -0.1391  -0.1465
H       -0.7639  -2.2432  -1.0688
H       -1.2008  -0.9523  -1.9725
