27

Co      0.0219  -0.0046  0.0148
Cl      -1.0957  1.6298  -1.2245
Cl      1.1322  1.4083  1.3349
C       2.6163  -0.7022  -0.8071
C       2.1009  -1.8972  -0.0827
C       -2.4985  -1.2895  -0.4516
C       -2.3975  -1.1542  1.0587
N       1.4768  0.0760  -1.3117
N       1.0594  -1.4963  0.8323
N       -1.1083  -1.3240  -0.9998
N       -1.4600  -0.0370  1.3345
H       2.9529  -2.4161  0.3396
H       1.6285  -2.5733  -0.7806
H       -2.9423  -0.4188  -0.9043
H       -3.1047  -2.1551  -0.6826
H       1.7516  1.0351  -1.4570
H       1.2931  -0.2683  -2.2411
H       -1.9520  0.8359  1.2449
H       -1.1618  -0.0641  2.2911
H       -1.9808  -2.0348  1.5323
H       -3.3868  -1.0052  1.4677
H       0.5571  -2.3108  1.1324
H       1.5365  -1.1733  1.6615
H       3.2928  -1.1054  -1.5544
H       3.1671  -0.0310  -0.1720
H       -0.8206  -2.2841  -0.9816
H       -1.1705  -1.0760  -1.9722
