27

Co      0.0117  0.0180  -0.0050
Cl      -1.0863  1.6077  -1.2134
Cl      1.1551  1.4328  1.3563
C       2.6527  -0.7118  -0.8220
C       2.1482  -1.9575  -0.0917
C       -2.5317  -1.3182  -0.4529
C       -2.4210  -1.1520  1.0638
N       1.4597  0.0688  -1.2608
N       1.0734  -1.4815  0.8342
N       -1.1487  -1.3353  -1.0439
N       -1.4673  -0.0426  1.3439
H       2.9864  -2.4556  0.3780
H       1.6761  -2.6582  -0.7635
H       -3.0073  -0.4708  -0.9202
H       -3.1234  -2.2035  -0.6492
H       1.7332  1.0303  -1.4040
H       1.2506  -0.2610  -2.1875
H       -1.9563  0.8355  1.2848
H       -1.1505  -0.0952  2.2948
H       -2.0177  -2.0330  1.5441
H       -3.4075  -0.9862  1.4707
H       0.5680  -2.2704  1.1933
H       1.5745  -1.1137  1.6276
H       3.3388  -1.0130  -1.5983
H       3.1726  -0.0506  -0.1467
H       -0.8542  -2.2944  -1.0628
H       -1.2428  -1.0606  -2.0070
