27

Co      0.0262  0.0068  0.0122
Cl      -1.0723  1.5844  -1.2048
Cl      1.1273  1.3980  1.3321
C       2.6118  -0.6964  -0.7984
C       2.0763  -1.8743  -0.0885
C       -2.5009  -1.3078  -0.4428
C       -2.4140  -1.1399  1.0563
N       1.4922  0.0771  -1.3435
N       1.0564  -1.4684  0.8407
N       -1.1233  -1.2973  -1.0229
N       -1.4610  -0.0450  1.3501
H       2.8733  -2.4108  0.3949
H       1.6272  -2.5470  -0.8060
H       -3.0316  -0.4803  -0.8733
H       -3.0170  -2.2161  -0.7033
H       1.7318  1.0424  -1.4656
H       1.2121  -0.2622  -2.2449
H       -1.8992  0.8549  1.2667
H       -1.1157  -0.0968  2.2848
H       -2.0537  -2.0405  1.5358
H       -3.3932  -0.9292  1.4620
H       0.5115  -2.2624  1.1145
H       1.4661  -1.0872  1.6733
H       3.2550  -1.0594  -1.5878
H       3.1920  -0.0615  -0.1552
H       -0.7660  -2.2283  -1.0597
H       -1.1830  -0.9563  -1.9635
