27

Co      -0.0249  0.0041  -0.0151
Cl      -1.0968  1.6198  -1.2183
Cl      1.1759  1.4592  1.3777
C       2.6876  -0.7302  -0.7997
C       2.1639  -1.9592  -0.1179
C       -2.5646  -1.3107  -0.4322
C       -2.4427  -1.1785  1.0546
N       1.5275  0.0512  -1.3198
N       1.1312  -1.5124  0.8654
N       -1.1598  -1.2679  -0.9615
N       -1.4857  -0.0723  1.2922
H       2.9126  -2.4916  0.4536
H       1.7491  -2.6520  -0.8383
H       -3.1487  -0.4913  -0.8217
H       -2.9880  -2.2457  -0.7891
H       1.7262  1.0388  -1.3263
H       1.1837  -0.1934  -2.2276
H       -1.9041  0.8345  1.1751
H       -1.0766  -0.0805  2.2079
H       -2.0639  -2.1009  1.4751
H       -3.3757  -0.9466  1.5478
H       0.6162  -2.2892  1.2290
H       1.5084  -0.9765  1.6368
H       3.3128  -0.9322  -1.6609
H       3.2581  -0.1448  -0.0978
H       -0.7005  -2.1655  -0.9046
H       -1.1602  -0.9660  -1.9161
