27

Co      -0.0258  -0.0153  -0.0151
Cl      -1.0776  1.6026  -1.2018
Cl      1.1809  1.4791  1.3876
C       2.6544  -0.7194  -0.8100
C       2.1479  -1.9418  -0.1076
C       -2.5330  -1.2952  -0.4432
C       -2.3931  -1.1527  1.0459
N       1.4820  0.0614  -1.2896
N       1.0658  -1.4960  0.8244
N       -1.1473  -1.3335  -1.0106
N       -1.4506  -0.0429  1.3023
H       2.8906  -2.4266  0.5180
H       1.7790  -2.6755  -0.8167
H       -3.0796  -0.4564  -0.8326
H       -3.0205  -2.2030  -0.7695
H       1.6704  1.0504  -1.2900
H       1.1152  -0.1723  -2.1954
H       -1.8633  0.8651  1.1832
H       -1.0459  -0.0524  2.2175
H       -2.0049  -2.0695  1.4632
H       -3.3279  -0.9368  1.5375
H       0.5199  -2.2704  1.1392
H       1.4104  -0.9939  1.6309
H       3.2456  -0.9218  -1.6948
H       3.2496  -0.1319  -0.1293
H       -0.7245  -2.2431  -0.9574
H       -1.1532  -1.0319  -1.9660
