27

Co      0.0000  0.0012  0.0015
Cl      -1.0971  1.6187  -1.2238
Cl      1.1671  1.4518  1.3674
C       2.6869  -0.7303  -0.8201
C       2.1572  -1.9403  -0.1064
C       -2.5539  -1.3239  -0.4319
C       -2.4461  -1.1611  1.0602
N       1.5295  0.0641  -1.3145
N       1.1004  -1.4935  0.8525
N       -1.1734  -1.3121  -1.0277
N       -1.4963  -0.0573  1.3409
H       2.8980  -2.4545  0.4910
H       1.7547  -2.6502  -0.8169
H       -3.1361  -0.5084  -0.8281
H       -3.0092  -2.2536  -0.7490
H       1.7301  1.0483  -1.3322
H       1.1549  -0.1838  -2.2132
H       -1.9021  0.8540  1.2244
H       -1.1062  -0.0863  2.2635
H       -2.0896  -2.0784  1.5054
H       -3.3972  -0.9260  1.5118
H       0.5419  -2.2685  1.1509
H       1.4541  -1.0085  1.6623
H       3.2786  -0.9632  -1.6971
H       3.2959  -0.1465  -0.1469
H       -0.7473  -2.2206  -1.0602
H       -1.2083  -0.9338  -1.9564
