27

Co      -0.0041  -0.0301  -0.0020
Cl      -1.1125  1.6479  -1.2340
Cl      1.1808  1.4725  1.3858
C       2.7316  -0.7106  -0.8147
C       2.1648  -1.9851  -0.1075
C       -2.5625  -1.3212  -0.4464
C       -2.4459  -1.1824  1.0752
N       1.5079  0.0715  -1.3366
N       1.0930  -1.4778  0.8671
N       -1.1631  -1.3182  -1.0206
N       -1.4995  -0.0362  1.3374
H       2.8456  -2.5989  0.4826
H       1.7040  -2.6175  -0.8617
H       -3.0930  -0.4504  -0.8018
H       -3.0540  -2.2084  -0.8329
H       1.6641  1.0674  -1.3544
H       1.1541  -0.1932  -2.2371
H       -1.9175  0.8672  1.1834
H       -1.1102  -0.0213  2.2648
H       -2.0654  -2.0878  1.5234
H       -3.3905  -0.9540  1.5424
H       0.5198  -2.2209  1.2191
H       1.4687  -0.9573  1.6470
H       3.3323  -0.8964  -1.7001
H       3.3046  -0.1047  -0.1312
H       -0.7350  -2.2286  -1.0405
H       -1.1718  -0.9412  -1.9503
