27

Co      -0.0210  -0.0249  -0.0271
Cl      -1.1021  1.6447  -1.2278
Cl      1.1862  1.4870  1.3968
C       2.6805  -0.7210  -0.7985
C       2.1653  -1.9808  -0.0864
C       -2.5249  -1.3082  -0.4471
C       -2.4411  -1.1875  1.0822
N       1.4799  0.0734  -1.3221
N       1.0903  -1.5250  0.8278
N       -1.1198  -1.3056  -0.9845
N       -1.4936  -0.0391  1.3458
H       2.9325  -2.5423  0.4313
H       1.7214  -2.6338  -0.8259
H       -2.9916  -0.4132  -0.8325
H       -3.0763  -2.1676  -0.8101
H       1.7018  1.0539  -1.3675
H       1.2485  -0.2010  -2.2572
H       -1.9544  0.8474  1.2532
H       -1.1124  -0.0575  2.2757
H       -2.0529  -2.0737  1.5636
H       -3.4147  -0.9855  1.5000
H       0.5658  -2.2999  1.1842
H       1.5030  -1.0616  1.6202
H       3.3037  -1.0045  -1.6280
H       3.2459  -0.0720  -0.1509
H       -0.7275  -2.2305  -0.9315
H       -1.1487  -1.0452  -1.9538
