27

Co      0.0263  0.0158  0.0134
Cl      -1.0948  1.6268  -1.2236
Cl      1.1313  1.4042  1.3332
C       2.6035  -0.7043  -0.7952
C       2.1025  -1.8997  -0.0872
C       -2.5038  -1.2934  -0.4489
C       -2.3914  -1.1498  1.0506
N       1.4842  0.0822  -1.3290
N       1.0883  -1.5340  0.8695
N       -1.1301  -1.3674  -1.0351
N       -1.4692  -0.0293  1.3577
H       2.9294  -2.4219  0.3672
H       1.6576  -2.5760  -0.8036
H       -2.9796  -0.4252  -0.8668
H       -3.0875  -2.1614  -0.7135
H       1.7359  1.0459  -1.4480
H       1.1963  -0.2469  -2.2305
H       -1.9262  0.8604  1.2796
H       -1.1182  -0.0821  2.2919
H       -1.9903  -2.0469  1.5010
H       -3.3695  -0.9853  1.4778
H       0.5499  -2.3423  1.1220
H       1.4946  -1.1706  1.7139
H       3.2419  -1.0526  -1.5925
H       3.1871  -0.0713  -0.1514
H       -0.7932  -2.3074  -1.0058
H       -1.1728  -1.0877  -1.9965
