27

Co      -0.0071  -0.0306  -0.0015
Cl      -1.1112  1.6484  -1.2311
Cl      1.1831  1.4818  1.3868
C       2.6981  -0.7316  -0.8278
C       2.1670  -1.9500  -0.1067
C       -2.5572  -1.3019  -0.4382
C       -2.4343  -1.1806  1.0638
N       1.5135  0.0516  -1.2869
N       1.0757  -1.4781  0.8106
N       -1.1553  -1.3101  -0.9802
N       -1.4921  -0.0579  1.2981
H       2.9387  -2.4531  0.4602
H       1.7476  -2.6638  -0.8019
H       -3.0606  -0.4468  -0.8520
H       -3.0813  -2.1963  -0.7426
H       1.7344  1.0339  -1.3240
H       1.2458  -0.2041  -2.2156
H       -1.9483  0.8256  1.1396
H       -1.1626  -0.0272  2.2482
H       -2.0215  -2.0787  1.5021
H       -3.3877  -0.9970  1.5294
H       0.5580  -2.2631  1.1556
H       1.4965  -1.0341  1.6078
H       3.3297  -1.0028  -1.6572
H       3.2672  -0.1080  -0.1577
H       -0.7943  -2.2465  -0.9637
H       -1.1864  -1.0192  -1.9395
