27

Co      0.0241  0.0110  0.0150
Cl      -1.0837  1.6061  -1.2175
Cl      1.1219  1.3941  1.3232
C       2.6174  -0.7086  -0.8159
C       2.0988  -1.8815  -0.0775
C       -2.4826  -1.2926  -0.4400
C       -2.4104  -1.1467  1.0635
N       1.5073  0.0917  -1.3478
N       1.0540  -1.5144  0.8472
N       -1.1082  -1.3277  -1.0266
N       -1.4859  -0.0309  1.3851
H       2.9135  -2.3838  0.4127
H       1.6754  -2.5793  -0.7852
H       -2.9763  -0.4387  -0.8618
H       -3.0378  -2.1746  -0.7146
H       1.7592  1.0558  -1.4413
H       1.2258  -0.2165  -2.2587
H       -1.9354  0.8608  1.3027
H       -1.1413  -0.0863  2.3212
H       -2.0325  -2.0426  1.5360
H       -3.4020  -0.9689  1.4564
H       0.5007  -2.3259  1.0689
H       1.4380  -1.1678  1.7124
H       3.2352  -1.0956  -1.6167
H       3.2280  -0.0752  -0.1956
H       -0.7599  -2.2626  -1.0394
H       -1.1629  -1.0096  -1.9753
