27

Co      -0.0012  -0.0040  0.0025
Cl      -1.0917  1.6077  -1.2128
Cl      1.1590  1.4381  1.3566
C       2.7083  -0.7108  -0.8480
C       2.1638  -1.9678  -0.1056
C       -2.5587  -1.3076  -0.4456
C       -2.4251  -1.1624  1.0614
N       1.4966  0.0741  -1.2821
N       1.0596  -1.4592  0.8577
N       -1.1565  -1.2917  -1.0051
N       -1.4708  -0.0491  1.3013
H       2.9239  -2.4798  0.4650
H       1.7134  -2.6820  -0.7829
H       -3.0936  -0.4783  -0.8747
H       -3.0576  -2.2242  -0.7190
H       1.7053  1.0576  -1.3253
H       1.2019  -0.1851  -2.2036
H       -1.9253  0.8392  1.1610
H       -1.1357  -0.0334  2.2466
H       -2.0138  -2.0639  1.4946
H       -3.3726  -0.9723  1.5399
H       0.5321  -2.2304  1.2218
H       1.5059  -1.0129  1.6391
H       3.3591  -0.9261  -1.6857
H       3.2479  -0.0923  -0.1482
H       -0.7926  -2.2247  -1.0237
H       -1.1986  -0.9633  -1.9513
