27

Co      0.0046  0.0126  0.0090
Cl      -1.0821  1.6089  -1.2197
Cl      1.1276  1.3932  1.3267
C       2.6004  -0.6999  -0.8041
C       2.1033  -1.9037  -0.0744
C       -2.4825  -1.3141  -0.4549
C       -2.3937  -1.1215  1.0569
N       1.4700  0.0937  -1.3072
N       1.0901  -1.5203  0.8755
N       -1.1159  -1.3193  -1.0609
N       -1.4378  -0.0269  1.3706
H       2.9790  -2.4252  0.3089
H       1.6096  -2.5724  -0.7644
H       -2.9736  -0.4833  -0.9334
H       -3.0678  -2.2088  -0.6288
H       1.7571  1.0493  -1.4405
H       1.2882  -0.2391  -2.2416
H       -1.9136  0.8627  1.3675
H       -1.0972  -0.1345  2.3077
H       -2.0160  -2.0013  1.5629
H       -3.3958  -0.9434  1.4279
H       0.6116  -2.3413  1.1957
H       1.5799  -1.1755  1.6874
H       3.2742  -1.1032  -1.5553
H       3.1581  -0.0338  -0.1710
H       -0.8153  -2.2729  -1.0995
H       -1.2159  -1.0203  -2.0141
