27

Co      0.0186  0.0082  0.0349
Cl      -1.0868  1.6156  -1.2245
Cl      1.1215  1.3880  1.3183
C       2.6108  -0.7006  -0.7981
C       2.0927  -1.8835  -0.0882
C       -2.5037  -1.3167  -0.4556
C       -2.3834  -1.1203  1.0391
N       1.4794  0.0751  -1.3088
N       1.0755  -1.4839  0.8488
N       -1.1350  -1.3385  -1.0513
N       -1.4199  -0.0364  1.3412
H       2.8960  -2.4179  0.3874
H       1.6411  -2.5581  -0.8035
H       -3.0337  -0.4969  -0.9013
H       -3.0393  -2.2273  -0.6746
H       1.7183  1.0401  -1.4352
H       1.1796  -0.2614  -2.2051
H       -1.8517  0.8704  1.2906
H       -1.0650  -0.1175  2.2715
H       -2.0222  -2.0229  1.5138
H       -3.3526  -0.9037  1.4621
H       0.5373  -2.2830  1.1202
H       1.4918  -1.1101  1.6830
H       3.2327  -1.0548  -1.6082
H       3.2104  -0.0725  -0.1636
H       -0.7892  -2.2728  -1.0825
H       -1.1884  -0.9979  -1.9910
