27

Co      -0.0087  0.0063  -0.0029
Cl      -1.0938  1.6120  -1.2105
Cl      1.1859  1.4825  1.3925
C       2.6982  -0.7302  -0.8232
C       2.1537  -1.9359  -0.1122
C       -2.5819  -1.3120  -0.4388
C       -2.4351  -1.1844  1.0489
N       1.5493  0.0588  -1.3541
N       1.0874  -1.5156  0.8530
N       -1.1898  -1.3379  -0.9951
N       -1.5016  -0.0595  1.3044
H       2.8939  -2.4594  0.4806
H       1.7560  -2.6387  -0.8337
H       -3.1309  -0.4685  -0.8214
H       -3.0628  -2.2193  -0.7795
H       1.7490  1.0441  -1.3786
H       1.1883  -0.2013  -2.2513
H       -1.9282  0.8393  1.1701
H       -1.1122  -0.0604  2.2277
H       -2.0299  -2.1016  1.4542
H       -3.3682  -0.9851  1.5537
H       0.5306  -2.3027  1.1258
H       1.4306  -1.0515  1.6784
H       3.3105  -0.9773  -1.6783
H       3.2904  -0.1355  -0.1449
H       -0.7658  -2.2494  -0.9476
H       -1.1869  -1.0313  -1.9491
