27

Co      0.0357  0.0350  0.0083
Cl      -1.0971  1.6188  -1.2254
Cl      1.1348  1.4036  1.3327
C       2.6637  -0.7140  -0.8339
C       2.1468  -1.9497  -0.0866
C       -2.5261  -1.3155  -0.4473
C       -2.4405  -1.1632  1.0738
N       1.4868  0.0775  -1.2911
N       1.0711  -1.4968  0.8501
N       -1.1432  -1.3460  -1.0440
N       -1.5048  -0.0416  1.3829
H       2.9882  -2.4522  0.3701
H       1.6689  -2.6447  -0.7601
H       -2.9843  -0.4544  -0.9081
H       -3.1334  -2.1873  -0.6568
H       1.7692  1.0341  -1.4543
H       1.2664  -0.2685  -2.2097
H       -2.0008  0.8306  1.3133
H       -1.2056  -0.0960  2.3412
H       -2.0363  -2.0432  1.5564
H       -3.4419  -1.0155  1.4585
H       0.5389  -2.2934  1.1525
H       1.5597  -1.1784  1.6747
H       3.3489  -1.0469  -1.6010
H       3.1940  -0.0504  -0.1697
H       -0.8587  -2.3083  -1.0774
H       -1.2398  -1.0584  -2.0028
