27

Co      -0.0314  -0.0102  -0.0097
Cl      -1.0943  1.6191  -1.2148
Cl      1.1937  1.4869  1.4003
C       2.7292  -0.7072  -0.8224
C       2.1685  -1.9942  -0.0984
C       -2.5819  -1.3384  -0.4647
C       -2.4309  -1.1741  1.0617
N       1.5008  0.0798  -1.3407
N       1.0945  -1.5010  0.8832
N       -1.1800  -1.3117  -1.0223
N       -1.4587  -0.0381  1.3042
H       2.9091  -2.6092  0.4065
H       1.6647  -2.6161  -0.8340
H       -3.0988  -0.4823  -0.8732
H       -3.1038  -2.2331  -0.7672
H       1.7010  1.0656  -1.3944
H       1.2541  -0.2084  -2.2662
H       -1.9173  0.8548  1.2318
H       -1.0697  -0.0689  2.2299
H       -2.0250  -2.0642  1.5215
H       -3.3752  -0.9627  1.5386
H       0.5808  -2.2690  1.2740
H       1.5463  -1.0252  1.6472
H       3.3838  -0.9506  -1.6462
H       3.2606  -0.0593  -0.1424
H       -0.7892  -2.2377  -1.0132
H       -1.2072  -1.0031  -1.9744
