27

Co      -0.0097  -0.0010  0.0071
Cl      -1.0872  1.6107  -1.2143
Cl      1.1560  1.4393  1.3581
C       2.6959  -0.7001  -0.8322
C       2.1417  -1.9533  -0.1167
C       -2.5477  -1.3055  -0.4454
C       -2.4135  -1.1564  1.0481
N       1.5062  0.0679  -1.3334
N       1.0505  -1.4879  0.8794
N       -1.1410  -1.2988  -0.9829
N       -1.4465  -0.0615  1.2969
H       2.8598  -2.4840  0.4951
H       1.7233  -2.6572  -0.8271
H       -3.1196  -0.4877  -0.8496
H       -2.9900  -2.2379  -0.7743
H       1.6699  1.0602  -1.3546
H       1.1268  -0.1927  -2.2280
H       -1.8549  0.8500  1.1662
H       -1.0566  -0.0636  2.2182
H       -2.0350  -2.0830  1.4588
H       -3.3384  -0.9230  1.5551
H       0.4924  -2.2588  1.1882
H       1.4211  -1.0108  1.6839
H       3.3332  -0.8710  -1.6962
H       3.2426  -0.1090  -0.1159
H       -0.7091  -2.2041  -0.9522
H       -1.1318  -0.9668  -1.9274
