27

Co      0.0361  0.0355  0.0022
Cl      -1.0812  1.6019  -1.2124
Cl      1.1407  1.4179  1.3465
C       2.6425  -0.7023  -0.8069
C       2.1211  -1.9398  -0.1041
C       -2.5249  -1.3156  -0.4463
C       -2.4321  -1.1592  1.0605
N       1.4660  0.0546  -1.3049
N       1.0494  -1.4788  0.8284
N       -1.1368  -1.3511  -1.0228
N       -1.4771  -0.0597  1.3612
H       2.9031  -2.4507  0.4319
H       1.6900  -2.6366  -0.8082
H       -3.0229  -0.4665  -0.8777
H       -3.0732  -2.2041  -0.7124
H       1.6994  1.0200  -1.4706
H       1.1467  -0.3089  -2.1875
H       -1.9247  0.8356  1.2800
H       -1.1332  -0.1124  2.2995
H       -2.0656  -2.0648  1.5227
H       -3.4064  -0.9576  1.4778
H       0.4718  -2.2513  1.1073
H       1.4676  -1.1069  1.6607
H       3.3139  -0.9530  -1.6119
H       3.1683  -0.0684  -0.1129
H       -0.7886  -2.2872  -1.0129
H       -1.1908  -1.0594  -1.9804
