27

Co      -0.0011  -0.0074  -0.0112
Cl      -1.0957  1.6297  -1.2184
Cl      1.1893  1.4933  1.4014
C       2.7062  -0.7030  -0.8220
C       2.1615  -1.9949  -0.0953
C       -2.5666  -1.3284  -0.4631
C       -2.4329  -1.1827  1.0675
N       1.4690  0.0736  -1.3284
N       1.0487  -1.5014  0.8447
N       -1.1614  -1.3569  -1.0157
N       -1.4676  -0.0431  1.3235
H       2.8991  -2.5717  0.4505
H       1.6993  -2.6454  -0.8286
H       -3.0355  -0.4409  -0.8631
H       -3.1337  -2.1917  -0.7837
H       1.6690  1.0558  -1.4207
H       1.1944  -0.2403  -2.2384
H       -1.9265  0.8456  1.2270
H       -1.1000  -0.0605  2.2580
H       -2.0339  -2.0741  1.5279
H       -3.3852  -0.9773  1.5278
H       0.4838  -2.2620  1.1722
H       1.4714  -1.0798  1.6516
H       3.3565  -0.9324  -1.6511
H       3.2330  -0.0492  -0.1430
H       -0.7940  -2.2908  -0.9802
H       -1.1841  -1.0794  -1.9794
