27

Co      -0.0166  0.0027  -0.0311
Cl      -1.0712  1.5858  -1.1933
Cl      1.1745  1.4681  1.3824
C       2.6784  -0.7071  -0.8391
C       2.1626  -1.9817  -0.1024
C       -2.5363  -1.2947  -0.4438
C       -2.4218  -1.1683  1.0658
N       1.4681  0.0751  -1.2892
N       1.0350  -1.4951  0.8452
N       -1.1275  -1.2950  -0.9813
N       -1.4680  -0.0542  1.3072
H       2.9412  -2.4542  0.4832
H       1.7502  -2.7214  -0.7762
H       -3.0476  -0.4487  -0.8695
H       -3.0470  -2.1963  -0.7428
H       1.6830  1.0581  -1.3241
H       1.1891  -0.1770  -2.2179
H       -1.9268  0.8330  1.1924
H       -1.1060  -0.0512  2.2411
H       -2.0143  -2.0709  1.4978
H       -3.3734  -0.9803  1.5355
H       0.5096  -2.2711  1.1995
H       1.4617  -1.0469  1.6364
H       3.3463  -0.8999  -1.6681
H       3.1925  -0.0803  -0.1267
H       -0.7486  -2.2229  -0.9291
H       -1.1613  -1.0374  -1.9520
