27

Co      -0.0006  0.0181  0.0079
Cl      -1.0876  1.6190  -1.2238
Cl      1.1376  1.4118  1.3399
C       2.6393  -0.7200  -0.7946
C       2.1200  -1.9090  -0.0980
C       -2.4927  -1.3020  -0.4412
C       -2.4231  -1.1557  1.0597
N       1.5052  0.0513  -1.3276
N       1.0803  -1.5030  0.8154
N       -1.1050  -1.3096  -0.9912
N       -1.4771  -0.0543  1.3672
H       2.9199  -2.4267  0.4055
H       1.6979  -2.5948  -0.8171
H       -2.9972  -0.4569  -0.8703
H       -3.0210  -2.1963  -0.7277
H       1.7521  1.0163  -1.4497
H       1.2329  -0.2821  -2.2328
H       -1.9246  0.8421  1.3110
H       -1.1134  -0.1242  2.2973
H       -2.0584  -2.0585  1.5325
H       -3.4059  -0.9568  1.4601
H       0.5488  -2.3030  1.0992
H       1.4851  -1.1115  1.6467
H       3.2832  -1.0584  -1.5901
H       3.2123  -0.0861  -0.1433
H       -0.7303  -2.2362  -0.9551
H       -1.1452  -1.0355  -1.9538
