27

Co      0.0279  0.0158  0.0064
Cl      -1.0847  1.6081  -1.2103
Cl      1.1414  1.4198  1.3480
C       2.6019  -0.6973  -0.8050
C       2.0938  -1.8980  -0.0797
C       -2.5147  -1.3027  -0.4572
C       -2.3944  -1.1506  1.0528
N       1.4728  0.0859  -1.3278
N       1.0669  -1.5194  0.8596
N       -1.1396  -1.3638  -1.0414
N       -1.4616  -0.0301  1.3446
H       2.9622  -2.4211  0.3150
H       1.6103  -2.5659  -0.7780
H       -2.9581  -0.4314  -0.9130
H       -3.1453  -2.1624  -0.6589
H       1.7593  1.0406  -1.4939
H       1.2817  -0.2759  -2.2489
H       -1.9572  0.8437  1.2876
H       -1.1484  -0.0873  2.2939
H       -1.9729  -2.0288  1.5243
H       -3.3853  -1.0102  1.4636
H       0.5586  -2.3381  1.1393
H       1.5427  -1.2119  1.6964
H       3.2905  -1.1024  -1.5423
H       3.1443  -0.0219  -0.1656
H       -0.8626  -2.3280  -1.0297
H       -1.2156  -1.1150  -2.0134
