27

Co      -0.0154  0.0046  -0.0304
Cl      -1.0811  1.5938  -1.2028
Cl      1.1857  1.4819  1.3917
C       2.7118  -0.7217  -0.8399
C       2.1899  -2.0058  -0.0767
C       -2.5638  -1.3290  -0.4502
C       -2.4557  -1.1848  1.0817
N       1.4845  0.0997  -1.3116
N       1.0660  -1.5131  0.8491
N       -1.1597  -1.2955  -1.0105
N       -1.4936  -0.0396  1.3366
H       2.9470  -2.5364  0.4869
H       1.7513  -2.6966  -0.7829
H       -3.0698  -0.4634  -0.8496
H       -3.0858  -2.2153  -0.7817
H       1.7100  1.0816  -1.3339
H       1.2243  -0.1445  -2.2478
H       -1.9565  0.8470  1.2526
H       -1.1101  -0.0639  2.2643
H       -2.0644  -2.0716  1.5576
H       -3.4181  -0.9732  1.5218
H       0.5174  -2.2780  1.1947
H       1.4795  -1.0598  1.6459
H       3.3230  -0.9690  -1.6957
H       3.2836  -0.0800  -0.1856
H       -0.7613  -2.2177  -1.0001
H       -1.2055  -0.9971  -1.9679
