27

Co      -0.0177  -0.0325  -0.0324
Cl      -1.0809  1.6042  -1.2048
Cl      1.1808  1.4761  1.3929
C       2.6456  -0.7063  -0.8005
C       2.1251  -1.9346  -0.1091
C       -2.5120  -1.2931  -0.4295
C       -2.4196  -1.1542  1.0676
N       1.4926  0.0730  -1.3272
N       1.0838  -1.4998  0.8687
N       -1.1312  -1.2978  -1.0224
N       -1.4870  -0.0407  1.3387
H       2.8762  -2.4555  0.4660
H       1.7142  -2.6320  -0.8261
H       -3.0712  -0.4560  -0.8108
H       -2.9835  -2.2037  -0.7733
H       1.6754  1.0639  -1.3112
H       1.1539  -0.1588  -2.2425
H       -1.8944  0.8688  1.2042
H       -1.0846  -0.0445  2.2562
H       -2.0505  -2.0670  1.5081
H       -3.3766  -0.9367  1.5126
H       0.5574  -2.2745  1.2139
H       1.4453  -0.9693  1.6508
H       3.2700  -0.9140  -1.6571
H       3.2126  -0.1152  -0.1034
H       -0.7062  -2.2073  -1.0299
H       -1.1655  -0.9440  -1.9595
