27

Co      -0.0361  -0.0325  -0.0037
Cl      -1.0911  1.6250  -1.2202
Cl      1.1706  1.4607  1.3760
C       2.6742  -0.7083  -0.8246
C       2.1334  -1.9286  -0.1012
C       -2.5106  -1.2996  -0.4456
C       -2.4038  -1.1451  1.0589
N       1.5143  0.0752  -1.3346
N       1.0719  -1.5060  0.8689
N       -1.1223  -1.2931  -1.0111
N       -1.4550  -0.0385  1.3264
H       2.9220  -2.4616  0.4065
H       1.6792  -2.6118  -0.8043
H       -3.0383  -0.4679  -0.8786
H       -3.0215  -2.2100  -0.7170
H       1.7265  1.0583  -1.3519
H       1.2731  -0.1786  -2.2734
H       -1.8989  0.8584  1.2373
H       -1.0857  -0.0675  2.2570
H       -2.0099  -2.0430  1.5132
H       -3.3670  -0.9527  1.5006
H       0.5892  -2.3107  1.2174
H       1.5010  -1.0552  1.6585
H       3.3298  -1.0064  -1.6270
H       3.2274  -0.0779  -0.1526
H       -0.7495  -2.2232  -1.0151
H       -1.1623  -0.9770  -1.9599
