27

Co      0.0278  0.0264  0.0186
Cl      -1.0803  1.5988  -1.2160
Cl      1.1150  1.3771  1.3130
C       2.5951  -0.7038  -0.8091
C       2.0886  -1.8732  -0.1049
C       -2.4943  -1.2982  -0.4331
C       -2.4035  -1.1242  1.0435
N       1.4986  0.0632  -1.3063
N       1.0725  -1.4933  0.8651
N       -1.1224  -1.3110  -1.0228
N       -1.4537  -0.0631  1.3458
H       2.9312  -2.3349  0.3825
H       1.6646  -2.6060  -0.7767
H       -3.0504  -0.5063  -0.9009
H       -2.9936  -2.2340  -0.6360
H       1.7527  1.0254  -1.4245
H       1.1892  -0.2583  -2.2044
H       -1.8863  0.8406  1.2699
H       -1.1171  -0.1279  2.2827
H       -2.0422  -2.0394  1.4935
H       -3.3795  -0.9275  1.4607
H       0.5545  -2.3089  1.1324
H       1.4945  -1.1249  1.6978
H       3.2687  -1.0233  -1.5909
H       3.1522  -0.0934  -0.1249
H       -0.7794  -2.2461  -1.0482
H       -1.1906  -0.9857  -1.9677
