27

Co      0.0053  0.0358  -0.0020
Cl      -1.0724  1.5875  -1.2000
Cl      1.1399  1.4108  1.3445
C       2.6439  -0.6966  -0.8127
C       2.1148  -1.9303  -0.1008
C       -2.5064  -1.2943  -0.4524
C       -2.3992  -1.1521  1.0554
N       1.4885  0.0753  -1.3422
N       1.0632  -1.5148  0.8755
N       -1.1263  -1.3563  -1.0370
N       -1.4772  -0.0293  1.3705
H       2.9136  -2.4607  0.3899
H       1.6602  -2.6080  -0.8088
H       -2.9909  -0.4320  -0.8765
H       -3.0769  -2.1689  -0.7166
H       1.7225  1.0431  -1.4697
H       1.1971  -0.2644  -2.2406
H       -1.9407  0.8596  1.3102
H       -1.1112  -0.0914  2.2989
H       -1.9906  -2.0513  1.4951
H       -3.3750  -0.9967  1.4899
H       0.5227  -2.3089  1.1603
H       1.4854  -1.1318  1.7002
H       3.3232  -0.9761  -1.6025
H       3.1710  -0.0599  -0.1238
H       -0.7764  -2.2927  -0.9994
H       -1.1692  -1.0839  -2.0005
