27

Co      0.0038  0.0358  0.0050
Cl      -1.0825  1.6062  -1.2132
Cl      1.1298  1.3952  1.3297
C       2.6501  -0.6990  -0.8256
C       2.1280  -1.9411  -0.0902
C       -2.4954  -1.2941  -0.4577
C       -2.4007  -1.1513  1.0622
N       1.4817  0.0806  -1.3208
N       1.0620  -1.5203  0.8718
N       -1.1078  -1.3418  -1.0262
N       -1.4712  -0.0286  1.3745
H       2.9761  -2.4615  0.3377
H       1.6395  -2.6182  -0.7754
H       -2.9398  -0.4258  -0.9211
H       -3.1098  -2.1589  -0.6714
H       1.7536  1.0393  -1.4782
H       1.2841  -0.2716  -2.2449
H       -1.9733  0.8445  1.3385
H       -1.1445  -0.0998  2.3196
H       -1.9763  -2.0331  1.5262
H       -3.3955  -1.0216  1.4679
H       0.5594  -2.3312  1.1839
H       1.5553  -1.1949  1.6905
H       3.3609  -1.0352  -1.5710
H       3.1547  -0.0277  -0.1504
H       -0.8114  -2.2993  -0.9936
H       -1.1762  -1.1065  -2.0018
