27

Co      -0.0017  0.0061  -0.0017
Cl      -1.1039  1.6307  -1.2237
Cl      1.1758  1.4658  1.3777
C       2.7347  -0.7241  -0.8255
C       2.1861  -1.9963  -0.1002
C       -2.5752  -1.3183  -0.4499
C       -2.4454  -1.1953  1.0695
N       1.5107  0.0733  -1.3295
N       1.0836  -1.5018  0.8481
N       -1.1707  -1.3414  -1.0049
N       -1.5074  -0.0385  1.3371
H       2.8763  -2.5695  0.5175
H       1.7632  -2.6627  -0.8443
H       -3.0855  -0.4343  -0.8028
H       -3.0844  -2.1929  -0.8436
H       1.6881  1.0633  -1.3631
H       1.1381  -0.1934  -2.2235
H       -1.9406  0.8573  1.2016
H       -1.1119  -0.0350  2.2610
H       -2.0464  -2.1020  1.5004
H       -3.3856  -0.9847  1.5552
H       0.4859  -2.2501  1.1518
H       1.4360  -1.0194  1.6600
H       3.3169  -0.9152  -1.7240
H       3.3270  -0.1185  -0.1547
H       -0.7377  -2.2498  -0.9637
H       -1.1633  -1.0218  -1.9549
