27

Co      -0.0251  -0.0114  -0.0161
Cl      -1.0900  1.6086  -1.2104
Cl      1.1894  1.4791  1.3972
C       2.7093  -0.7255  -0.8165
C       2.1513  -1.9457  -0.1176
C       -2.5480  -1.3132  -0.4376
C       -2.4469  -1.1729  1.0691
N       1.5342  0.0438  -1.3251
N       1.0961  -1.4655  0.8318
N       -1.1618  -1.2985  -1.0175
N       -1.5132  -0.0501  1.3393
H       2.9171  -2.4954  0.4134
H       1.6922  -2.6183  -0.8259
H       -3.0761  -0.4728  -0.8563
H       -3.0619  -2.2172  -0.7229
H       1.7558  1.0230  -1.3914
H       1.2833  -0.2479  -2.2480
H       -1.9696  0.8384  1.2306
H       -1.1571  -0.0661  2.2778
H       -2.0459  -2.0682  1.5228
H       -3.4167  -0.9942  1.5028
H       0.5972  -2.2469  1.2139
H       1.5374  -0.9918  1.6009
H       3.3817  -0.9944  -1.6147
H       3.2414  -0.0957  -0.1227
H       -0.7899  -2.2318  -1.0375
H       -1.2193  -0.9768  -1.9646
