27

Co      -0.0329  -0.0146  -0.0027
Cl      -1.0889  1.6208  -1.2181
Cl      1.1685  1.4554  1.3718
C       2.6637  -0.7094  -0.8204
C       2.1398  -1.9381  -0.0991
C       -2.5232  -1.3080  -0.4509
C       -2.3975  -1.1419  1.0504
N       1.5016  0.0773  -1.3209
N       1.0845  -1.5207  0.8784
N       -1.1371  -1.3090  -1.0196
N       -1.4402  -0.0406  1.3169
H       2.9400  -2.4637  0.3991
H       1.6866  -2.6256  -0.7990
H       -3.0552  -0.4817  -0.8902
H       -3.0374  -2.2216  -0.7054
H       1.7233  1.0572  -1.3529
H       1.2477  -0.1839  -2.2533
H       -1.8851  0.8584  1.2521
H       -1.0604  -0.0887  2.2422
H       -2.0036  -2.0419  1.5005
H       -3.3543  -0.9442  1.5048
H       0.5997  -2.3255  1.2238
H       1.5168  -1.0753  1.6690
H       3.3171  -0.9958  -1.6291
H       3.2179  -0.0811  -0.1462
H       -0.7633  -2.2380  -1.0066
H       -1.1761  -1.0087  -1.9736
