27

Co      -0.0003  0.0055  0.0031
Cl      -1.0952  1.6349  -1.2315
Cl      1.1453  1.4250  1.3497
C       2.6570  -0.7013  -0.8271
C       2.1305  -1.9418  -0.0918
C       -2.4897  -1.3075  -0.4515
C       -2.4196  -1.1471  1.0707
N       1.4862  0.0743  -1.3239
N       1.0553  -1.5194  0.8636
N       -1.1022  -1.3305  -1.0269
N       -1.4690  -0.0423  1.3813
H       2.9729  -2.4621  0.3461
H       1.6456  -2.6188  -0.7784
H       -2.9493  -0.4529  -0.9243
H       -3.0851  -2.1857  -0.6636
H       1.7468  1.0375  -1.4580
H       1.3026  -0.2619  -2.2571
H       -1.9519  0.8398  1.3415
H       -1.1435  -0.1163  2.3289
H       -2.0309  -2.0301  1.5607
H       -3.4199  -0.9838  1.4474
H       0.5594  -2.3321  1.1806
H       1.5449  -1.1841  1.6804
H       3.3681  -1.0398  -1.5703
H       3.1606  -0.0282  -0.1535
H       -0.8031  -2.2876  -1.0357
H       -1.1828  -1.0600  -1.9903
