27

Co      -0.0364  -0.0185  -0.0004
Cl      -1.0834  1.6091  -1.2125
Cl      1.1630  1.4475  1.3662
C       2.6839  -0.7155  -0.8123
C       2.1345  -1.9247  -0.1146
C       -2.5179  -1.2941  -0.4382
C       -2.4101  -1.1537  1.0522
N       1.5261  0.0565  -1.3383
N       1.0737  -1.4838  0.8438
N       -1.1208  -1.2737  -0.9769
N       -1.4603  -0.0520  1.3138
H       2.8618  -2.4579  0.4832
H       1.7301  -2.6210  -0.8387
H       -3.0905  -0.4735  -0.8332
H       -2.9575  -2.2234  -0.7825
H       1.7029  1.0472  -1.3378
H       1.1832  -0.1902  -2.2476
H       -1.8686  0.8593  1.1967
H       -1.0570  -0.0653  2.2296
H       -2.0359  -2.0743  1.4793
H       -3.3500  -0.9271  1.5291
H       0.5469  -2.2658  1.1722
H       1.4325  -0.9755  1.6393
H       3.2983  -0.9498  -1.6700
H       3.2661  -0.1243  -0.1278
H       -0.6753  -2.1746  -0.9431
H       -1.1175  -0.9453  -1.9220
