27

Co      0.0320  0.0010  0.0003
Cl      -1.0898  1.6208  -1.2210
Cl      1.1493  1.4352  1.3581
C       2.6411  -0.6976  -0.8083
C       2.1138  -1.9322  -0.1044
C       -2.5122  -1.3081  -0.4428
C       -2.4274  -1.1550  1.0662
N       1.4649  0.0580  -1.3067
N       1.0413  -1.4723  0.8300
N       -1.1257  -1.3454  -1.0263
N       -1.4763  -0.0539  1.3596
H       2.8916  -2.4486  0.4320
H       1.6780  -2.6247  -0.8098
H       -3.0060  -0.4546  -0.8698
H       -3.0638  -2.1934  -0.7157
H       1.6842  1.0293  -1.4393
H       1.1610  -0.2824  -2.2012
H       -1.9173  0.8421  1.2496
H       -1.1421  -0.0830  2.3033
H       -2.0618  -2.0576  1.5336
H       -3.4044  -0.9532  1.4755
H       0.4760  -2.2466  1.1221
H       1.4601  -1.0850  1.6548
H       3.3100  -0.9535  -1.6125
H       3.1686  -0.0634  -0.1174
H       -0.7859  -2.2852  -1.0425
H       -1.1835  -1.0295  -1.9759
