27

Co      0.0030  -0.0037  -0.0007
Cl      -1.0741  1.5944  -1.2086
Cl      1.1398  1.4141  1.3458
C       2.5947  -0.6981  -0.8088
C       2.0787  -1.8667  -0.1073
C       -2.4724  -1.2924  -0.4310
C       -2.3952  -1.1137  1.0517
N       1.5062  0.0695  -1.3290
N       1.0719  -1.4999  0.8814
N       -1.1179  -1.3213  -1.0633
N       -1.4653  -0.0424  1.3727
H       2.9238  -2.3436  0.3634
H       1.6398  -2.5837  -0.7830
H       -3.0246  -0.4942  -0.8939
H       -2.9923  -2.2189  -0.6254
H       1.7493  1.0374  -1.4074
H       1.2282  -0.2283  -2.2439
H       -1.8948  0.8627  1.3026
H       -1.1143  -0.1134  2.3051
H       -2.0300  -2.0205  1.5110
H       -3.3847  -0.9336  1.4440
H       0.5828  -2.3226  1.1742
H       1.4959  -1.0990  1.6966
H       3.2811  -1.0245  -1.5763
H       3.1402  -0.0830  -0.1205
H       -0.7833  -2.2616  -1.1255
H       -1.2069  -0.9660  -1.9975
