27

Co      -0.0273  -0.0352  -0.0141
Cl      -1.0797  1.6051  -1.2057
Cl      1.1795  1.4738  1.3884
C       2.7030  -0.6941  -0.8201
C       2.1464  -1.9790  -0.0948
C       -2.5331  -1.3152  -0.4611
C       -2.4132  -1.1588  1.0699
N       1.4599  0.0796  -1.3107
N       1.0428  -1.4534  0.8369
N       -1.1288  -1.2892  -1.0136
N       -1.4420  -0.0290  1.3139
H       2.8687  -2.5665  0.4606
H       1.6722  -2.6265  -0.8240
H       -3.0384  -0.4536  -0.8652
H       -3.0558  -2.2043  -0.7790
H       1.6431  1.0685  -1.3565
H       1.2066  -0.2011  -2.2387
H       -1.8901  0.8663  1.2105
H       -1.0688  -0.0353  2.2446
H       -2.0233  -2.0483  1.5430
H       -3.3661  -0.9388  1.5222
H       0.5115  -2.2059  1.2335
H       1.4834  -0.9718  1.6041
H       3.3423  -0.9227  -1.6589
H       3.2375  -0.0474  -0.1438
H       -0.7447  -2.2155  -1.0191
H       -1.1612  -0.9672  -1.9616
