27

Co      0.0260  0.0109  0.0245
Cl      -1.0837  1.6064  -1.2214
Cl      1.1184  1.3814  1.3176
C       2.6207  -0.7038  -0.8275
C       2.0869  -1.8660  -0.1031
C       -2.4668  -1.2960  -0.4370
C       -2.4070  -1.1179  1.0604
N       1.5077  0.0566  -1.3014
N       1.0475  -1.4566  0.8347
N       -1.1103  -1.3362  -1.0702
N       -1.4820  -0.0401  1.4015
H       2.9505  -2.3394  0.3424
H       1.6209  -2.5825  -0.7605
H       -2.9631  -0.4815  -0.9347
H       -3.0551  -2.2000  -0.5745
H       1.7862  1.0104  -1.4709
H       1.2895  -0.3018  -2.2177
H       -1.9525  0.8453  1.3355
H       -1.1992  -0.1150  2.3620
H       -2.0257  -2.0067  1.5451
H       -3.4228  -0.9751  1.4118
H       0.5495  -2.2798  1.1204
H       1.5344  -1.1511  1.6658
H       3.3321  -1.0902  -1.5541
H       3.1488  -0.0528  -0.1561
H       -0.8517  -2.3054  -1.1663
H       -1.2318  -0.9942  -2.0085
