27

Co      -0.0041  -0.0361  -0.0019
Cl      -1.1014  1.6279  -1.2226
Cl      1.1687  1.4565  1.3706
C       2.7069  -0.7048  -0.8532
C       2.1541  -1.9577  -0.1034
C       -2.5386  -1.3001  -0.4409
C       -2.4229  -1.1570  1.0720
N       1.5066  0.0861  -1.3036
N       1.0564  -1.4711  0.8801
N       -1.1479  -1.3043  -1.0331
N       -1.4871  -0.0335  1.3280
H       2.9186  -2.4813  0.4478
H       1.6892  -2.6590  -0.7833
H       -3.0608  -0.4590  -0.8631
H       -3.0605  -2.2037  -0.7150
H       1.7048  1.0743  -1.3111
H       1.2310  -0.1501  -2.2381
H       -1.9375  0.8543  1.1686
H       -1.1580  -0.0077  2.2773
H       -2.0100  -2.0518  1.5140
H       -3.3840  -0.9814  1.5252
H       0.5411  -2.2514  1.2403
H       1.4996  -1.0204  1.6613
H       3.3602  -0.9388  -1.6814
H       3.2482  -0.0836  -0.1588
H       -0.8009  -2.2449  -1.0950
H       -1.2048  -0.9383  -1.9664
