27

Co      -0.0286  -0.0097  -0.0203
Cl      -1.1001  1.6270  -1.2199
Cl      1.1828  1.4762  1.3879
C       2.6999  -0.7367  -0.8199
C       2.1691  -1.9507  -0.1105
C       -2.5445  -1.2918  -0.4256
C       -2.4462  -1.1892  1.0679
N       1.5530  0.0629  -1.3479
N       1.1059  -1.5335  0.8592
N       -1.1439  -1.2880  -0.9654
N       -1.5247  -0.0569  1.3282
H       2.9201  -2.4617  0.4788
H       1.7767  -2.6604  -0.8266
H       -3.0913  -0.4422  -0.7994
H       -3.0054  -2.1981  -0.8074
H       1.7529  1.0524  -1.3197
H       1.2221  -0.1533  -2.2686
H       -1.9533  0.8396  1.1861
H       -1.1260  -0.0473  2.2497
H       -2.0475  -2.1041  1.4841
H       -3.3949  -0.9947  1.5418
H       0.5808  -2.3247  1.1739
H       1.4536  -1.0261  1.6615
H       3.3111  -0.9743  -1.6783
H       3.2903  -0.1467  -0.1383
H       -0.6978  -2.1920  -0.9076
H       -1.1442  -0.9899  -1.9220
