27

Co      0.0003  0.0017  -0.0046
Cl      -1.0812  1.6018  -1.2108
Cl      1.1730  1.4662  1.3812
C       2.6680  -0.7164  -0.8044
C       2.1338  -1.9350  -0.1149
C       -2.5527  -1.3286  -0.4376
C       -2.4399  -1.1571  1.0514
N       1.4996  0.0458  -1.3170
N       1.0673  -1.4710  0.8240
N       -1.1625  -1.3082  -1.0042
N       -1.4618  -0.0754  1.3146
H       2.8606  -2.4530  0.5007
H       1.7417  -2.6421  -0.8355
H       -3.1383  -0.5205  -0.8431
H       -2.9944  -2.2659  -0.7547
H       1.6874  1.0297  -1.3757
H       1.1214  -0.2423  -2.2024
H       -1.8577  0.8432  1.2092
H       -1.0657  -0.1096  2.2331
H       -2.1030  -2.0819  1.4989
H       -3.3799  -0.8930  1.5129
H       0.4974  -2.2355  1.1261
H       1.4209  -0.9892  1.6347
H       3.2867  -0.9237  -1.6672
H       3.2407  -0.1237  -0.1106
H       -0.7294  -2.2130  -1.0048
H       -1.1842  -0.9597  -1.9430
