27

Co      -0.0191  -0.0107  -0.0238
Cl      -1.1032  1.6362  -1.2230
Cl      1.1859  1.4804  1.3886
C       2.6748  -0.7354  -0.8145
C       2.1841  -1.9775  -0.1024
C       -2.5561  -1.3032  -0.4372
C       -2.4335  -1.1799  1.0636
N       1.4894  0.0592  -1.2633
N       1.1094  -1.5154  0.8327
N       -1.1530  -1.2974  -0.9759
N       -1.4848  -0.0603  1.2943
H       2.9859  -2.4589  0.4436
H       1.7698  -2.7028  -0.7882
H       -3.0697  -0.4542  -0.8540
H       -3.0680  -2.2038  -0.7425
H       1.7280  1.0393  -1.2859
H       1.2281  -0.1776  -2.1998
H       -1.9451  0.8252  1.1751
H       -1.1241  -0.0548  2.2312
H       -2.0249  -2.0791  1.5028
H       -3.3867  -0.9897  1.5298
H       0.6154  -2.3013  1.2133
H       1.5403  -1.0379  1.6081
H       3.3104  -0.9740  -1.6521
H       3.2348  -0.1170  -0.1322
H       -0.7709  -2.2257  -0.9216
H       -1.1892  -1.0435  -1.9477
