27

Co      -0.0271  -0.0148  -0.0240
Cl      -1.0832  1.5980  -1.2049
Cl      1.1878  1.4884  1.3959
C       2.6975  -0.7320  -0.8186
C       2.1649  -1.9544  -0.0783
C       -2.5553  -1.3184  -0.4389
C       -2.4520  -1.1880  1.0740
N       1.5304  0.0960  -1.3646
N       1.0854  -1.5268  0.8427
N       -1.1562  -1.2764  -0.9859
N       -1.5035  -0.0409  1.3298
H       2.8887  -2.5038  0.5146
H       1.7672  -2.6339  -0.8232
H       -3.1031  -0.4591  -0.7937
H       -3.0173  -2.2175  -0.8442
H       1.7306  1.0855  -1.3259
H       1.2128  -0.1164  -2.2907
H       -1.9268  0.8607  1.2201
H       -1.0804  -0.0545  2.2404
H       -2.0783  -2.0904  1.5343
H       -3.4010  -0.9504  1.5319
H       0.5244  -2.3015  1.1367
H       1.4085  -1.0239  1.6612
H       3.2488  -1.0221  -1.7065
H       3.3429  -0.1232  -0.1981
H       -0.6896  -2.1718  -0.9569
H       -1.1607  -0.9477  -1.9332
