27

Co      0.0234  0.0035  0.0204
Cl      -1.1011  1.6428  -1.2375
Cl      1.1404  1.4198  1.3437
C       2.6626  -0.7031  -0.8188
C       2.1223  -1.9277  -0.1056
C       -2.4950  -1.3076  -0.4473
C       -2.4166  -1.1447  1.0652
N       1.4897  0.0570  -1.3172
N       1.0481  -1.4832  0.8384
N       -1.1214  -1.3791  -1.0588
N       -1.4829  -0.0371  1.3996
H       2.8959  -2.4572  0.4221
H       1.6769  -2.6093  -0.8151
H       -2.9752  -0.4482  -0.8788
H       -3.0761  -2.1823  -0.6996
H       1.7069  1.0271  -1.4554
H       1.1796  -0.2889  -2.2088
H       -1.9242  0.8597  1.3123
H       -1.1468  -0.0945  2.3428
H       -2.0468  -2.0443  1.5347
H       -3.4047  -0.9625  1.4572
H       0.4814  -2.2680  1.1040
H       1.4629  -1.1191  1.6776
H       3.3219  -0.9818  -1.6232
H       3.2057  -0.0693  -0.1402
H       -0.7953  -2.3241  -1.0943
H       -1.1822  -1.0424  -2.0002
