27

Co      -0.0232  0.0071  -0.0141
Cl      -1.0822  1.6062  -1.2086
Cl      1.1831  1.4726  1.3920
C       2.6838  -0.7173  -0.7981
C       2.1451  -1.9562  -0.1225
C       -2.5485  -1.3216  -0.4471
C       -2.4336  -1.1650  1.0543
N       1.4940  0.0283  -1.3037
N       1.0858  -1.4679  0.8160
N       -1.1516  -1.3050  -0.9939
N       -1.4648  -0.0695  1.3121
H       2.9124  -2.4968  0.4157
H       1.6999  -2.6341  -0.8354
H       -3.0805  -0.4924  -0.8821
H       -3.0505  -2.2357  -0.7216
H       1.7139  1.0041  -1.4173
H       1.2252  -0.3008  -2.2100
H       -1.9122  0.8283  1.2404
H       -1.0928  -0.1120  2.2420
H       -2.0546  -2.0705  1.5076
H       -3.3890  -0.9527  1.5043
H       0.5774  -2.2419  1.1986
H       1.5310  -1.0034  1.5878
H       3.3716  -0.9491  -1.5962
H       3.1899  -0.0845  -0.0862
H       -0.7686  -2.2320  -0.9588
H       -1.1911  -1.0321  -1.9572
