27

Co      0.0290  0.0321  0.0146
Cl      -1.0884  1.6103  -1.2189
Cl      1.1214  1.3818  1.3223
C       2.6434  -0.6854  -0.8173
C       2.1032  -1.9278  -0.0942
C       -2.5082  -1.3076  -0.4567
C       -2.4128  -1.1484  1.0622
N       1.4800  0.0803  -1.3348
N       1.0668  -1.4980  0.8922
N       -1.1211  -1.3322  -1.0345
N       -1.4681  -0.0379  1.3674
H       2.9441  -2.4851  0.3047
H       1.5795  -2.5742  -0.7892
H       -2.9721  -0.4528  -0.9242
H       -3.1054  -2.1851  -0.6593
H       1.7439  1.0380  -1.5225
H       1.2751  -0.3037  -2.2468
H       -1.9605  0.8401  1.3155
H       -1.1575  -0.1028  2.3186
H       -2.0059  -2.0330  1.5365
H       -3.4064  -0.9983  1.4632
H       0.5558  -2.3009  1.2099
H       1.5769  -1.1772  1.7031
H       3.3742  -1.0228  -1.5475
H       3.1310  -0.0121  -0.1312
H       -0.8329  -2.2918  -1.0497
H       -1.1998  -1.0528  -1.9949
