27

Co      0.0009  0.0165  0.0009
Cl      -1.0820  1.5973  -1.2091
Cl      1.1507  1.4274  1.3532
C       2.6778  -0.7143  -0.8237
C       2.1357  -1.9331  -0.1023
C       -2.5275  -1.3067  -0.4426
C       -2.4312  -1.1625  1.0632
N       1.5122  0.0639  -1.3257
N       1.0650  -1.4811  0.8399
N       -1.1372  -1.3075  -1.0088
N       -1.4900  -0.0490  1.3496
H       2.9144  -2.4547  0.4303
H       1.6952  -2.6269  -0.8032
H       -3.0448  -0.4661  -0.8692
H       -3.0485  -2.2076  -0.7215
H       1.7433  1.0361  -1.4206
H       1.2299  -0.2454  -2.2354
H       -1.9449  0.8413  1.2578
H       -1.1388  -0.0840  2.2863
H       -2.0404  -2.0629  1.5168
H       -3.4022  -0.9777  1.4949
H       0.5285  -2.2679  1.1502
H       1.4865  -1.0724  1.6528
H       3.3346  -1.0011  -1.6294
H       3.2281  -0.0840  -0.1466
H       -0.7700  -2.2386  -1.0071
H       -1.1844  -1.0021  -1.9617
