27

Co      -0.0341  -0.0166  -0.0004
Cl      -1.0991  1.6268  -1.2170
Cl      1.1754  1.4576  1.3747
C       2.6849  -0.7217  -0.8022
C       2.1532  -1.9444  -0.1198
C       -2.5587  -1.2949  -0.4440
C       -2.3955  -1.1628  1.0408
N       1.5195  0.0560  -1.3075
N       1.1261  -1.4975  0.8706
N       -1.1651  -1.3043  -0.9928
N       -1.4601  -0.0430  1.2759
H       2.8941  -2.4930  0.4451
H       1.7244  -2.6268  -0.8436
H       -3.1222  -0.4614  -0.8277
H       -3.0221  -2.2133  -0.7785
H       1.7036  1.0478  -1.3025
H       1.1717  -0.1815  -2.2164
H       -1.8834  0.8603  1.1406
H       -1.0594  -0.0326  2.1944
H       -1.9788  -2.0802  1.4382
H       -3.3190  -0.9629  1.5656
H       0.6216  -2.2761  1.2434
H       1.5102  -0.9573  1.6362
H       3.2976  -0.9294  -1.6712
H       3.2672  -0.1385  -0.1077
H       -0.7326  -2.2119  -0.9381
H       -1.1559  -0.9949  -1.9447
