27

Co      -0.0175  -0.0124  -0.0292
Cl      -1.0931  1.6175  -1.2097
Cl      1.1960  1.4960  1.4034
C       2.6810  -0.7291  -0.7995
C       2.1782  -1.9881  -0.0838
C       -2.5754  -1.3213  -0.4521
C       -2.4376  -1.1924  1.0680
N       1.4703  0.0752  -1.2869
N       1.1059  -1.5053  0.8178
N       -1.1687  -1.2995  -0.9845
N       -1.4773  -0.0443  1.2890
H       2.9460  -2.5369  0.4486
H       1.7398  -2.6575  -0.8122
H       -3.0678  -0.4420  -0.8381
H       -3.1073  -2.1975  -0.7982
H       1.7040  1.0552  -1.3281
H       1.2256  -0.1868  -2.2202
H       -1.9443  0.8395  1.1868
H       -1.0975  -0.0449  2.2185
H       -2.0300  -2.0791  1.5324
H       -3.3877  -0.9830  1.5354
H       0.5829  -2.2697  1.2018
H       1.5277  -1.0203  1.5942
H       3.2840  -0.9995  -1.6512
H       3.2652  -0.0883  -0.1562
H       -0.7713  -2.2227  -0.9246
H       -1.1954  -1.0458  -1.9572
