27

Co      0.0003  0.0002  -0.0045
Cl      -1.0857  1.5988  -1.2093
Cl      1.1760  1.4662  1.3797
C       2.7105  -0.7153  -0.8351
C       2.1603  -1.9654  -0.1176
C       -2.5766  -1.3286  -0.4375
C       -2.4473  -1.1631  1.0573
N       1.5089  0.0591  -1.3050
N       1.0622  -1.4592  0.8516
N       -1.1807  -1.3006  -1.0132
N       -1.4754  -0.0694  1.3056
H       2.8699  -2.4818  0.5255
H       1.7523  -2.6844  -0.8177
H       -3.1712  -0.5234  -0.8413
H       -3.0094  -2.2718  -0.7531
H       1.6825  1.0503  -1.3279
H       1.1191  -0.1946  -2.1979
H       -1.8788  0.8432  1.1661
H       -1.0926  -0.0710  2.2315
H       -2.0866  -2.0862  1.4871
H       -3.3785  -0.9140  1.5438
H       0.4912  -2.2136  1.1802
H       1.4333  -0.9609  1.6446
H       3.3326  -0.8711  -1.7158
H       3.2697  -0.1301  -0.1201
H       -0.7520  -2.2084  -1.0420
H       -1.2055  -0.9240  -1.9431
