27

Co      -0.0286  -0.0124  -0.0218
Cl      -1.0960  1.6173  -1.2101
Cl      1.1758  1.4637  1.3796
C       2.7213  -0.7159  -0.8514
C       2.1732  -1.9758  -0.1073
C       -2.5419  -1.2754  -0.4381
C       -2.4277  -1.1892  1.0740
N       1.5311  0.0815  -1.3352
N       1.0701  -1.5176  0.8853
N       -1.1295  -1.2859  -0.9673
N       -1.5164  -0.0389  1.3167
H       2.9521  -2.4907  0.4356
H       1.7231  -2.6811  -0.7914
H       -3.0329  -0.4047  -0.8423
H       -3.0660  -2.1589  -0.7700
H       1.7428  1.0691  -1.3300
H       1.2839  -0.1461  -2.2799
H       -1.9960  0.8334  1.1608
H       -1.1689  0.0019  2.2598
H       -1.9718  -2.0846  1.4819
H       -3.3837  -1.0545  1.5576
H       0.5759  -2.3123  1.2485
H       1.5067  -1.0599  1.6665
H       3.3966  -0.9495  -1.6620
H       3.2423  -0.0888  -0.1456
H       -0.7541  -2.2182  -0.9128
H       -1.1481  -1.0243  -1.9366
