27

Co      -0.0106  -0.0190  0.0076
Cl      -1.0936  1.6254  -1.2207
Cl      1.1624  1.4512  1.3654
C       2.6565  -0.7080  -0.8093
C       2.1292  -1.9262  -0.1077
C       -2.5433  -1.3064  -0.4443
C       -2.3996  -1.1490  1.0410
N       1.4996  0.0691  -1.3214
N       1.0782  -1.5020  0.8673
N       -1.1490  -1.3075  -0.9934
N       -1.4338  -0.0563  1.2844
H       2.8735  -2.4522  0.4704
H       1.7202  -2.6258  -0.8278
H       -3.1153  -0.4881  -0.8446
H       -2.9964  -2.2359  -0.7646
H       1.6804  1.0583  -1.3301
H       1.1360  -0.1802  -2.2231
H       -1.8367  0.8579  1.1606
H       -1.0386  -0.0655  2.2028
H       -2.0263  -2.0718  1.4628
H       -3.3266  -0.9087  1.5411
H       0.5388  -2.2848  1.1732
H       1.4380  -1.0162  1.6740
H       3.2632  -0.9360  -1.6758
H       3.2464  -0.1188  -0.1285
H       -0.7216  -2.2140  -0.9646
H       -1.1455  -0.9759  -1.9380
