27

Co      -0.0304  0.0024  -0.0090
Cl      -1.0837  1.5947  -1.1986
Cl      1.1803  1.4625  1.3846
C       2.6953  -0.7172  -0.8184
C       2.1431  -1.9384  -0.1117
C       -2.5622  -1.3032  -0.4493
C       -2.4121  -1.1697  1.0506
N       1.5330  0.0629  -1.3378
N       1.1049  -1.4929  0.8705
N       -1.1734  -1.3090  -1.0117
N       -1.4853  -0.0376  1.3020
H       2.9267  -2.4959  0.3831
H       1.6694  -2.6038  -0.8205
H       -3.0848  -0.4585  -0.8665
H       -3.0858  -2.2034  -0.7248
H       1.7601  1.0416  -1.3959
H       1.2828  -0.2231  -2.2620
H       -1.9552  0.8458  1.2023
H       -1.1197  -0.0498  2.2344
H       -1.9715  -2.0654  1.4719
H       -3.3630  -1.0142  1.5373
H       0.6205  -2.2876  1.2432
H       1.5512  -1.0298  1.6424
H       3.3676  -1.0015  -1.6134
H       3.2336  -0.0872  -0.1299
H       -0.8019  -2.2418  -0.9826
H       -1.2058  -1.0252  -1.9720
