27

Co      0.0281  0.0170  0.0174
Cl      -1.0934  1.6169  -1.2206
Cl      1.1514  1.4301  1.3528
C       2.6357  -0.7216  -0.8033
C       2.1212  -1.9035  -0.0933
C       -2.5338  -1.3207  -0.4483
C       -2.4127  -1.1483  1.0515
N       1.4984  0.0630  -1.3016
N       1.0917  -1.4877  0.8262
N       -1.1770  -1.3899  -1.0819
N       -1.4867  -0.0310  1.3695
H       2.9228  -2.4238  0.4048
H       1.6845  -2.5887  -0.8045
H       -3.0311  -0.4682  -0.8720
H       -3.1194  -2.1995  -0.6788
H       1.7528  1.0257  -1.4389
H       1.1917  -0.2747  -2.1942
H       -1.9366  0.8619  1.2941
H       -1.1439  -0.0957  2.3083
H       -2.0253  -2.0419  1.5179
H       -3.3941  -0.9721  1.4644
H       0.5352  -2.2794  1.0891
H       1.4975  -1.1145  1.6653
H       3.2537  -1.0642  -1.6183
H       3.2379  -0.0934  -0.1660
H       -0.8517  -2.3356  -1.1205
H       -1.2496  -1.0552  -2.0246
