27

Co      -0.0044  -0.0144  -0.0003
Cl      -1.1048  1.6320  -1.2264
Cl      1.1732  1.4593  1.3760
C       2.7335  -0.7172  -0.8272
C       2.1632  -1.9690  -0.1319
C       -2.5615  -1.3069  -0.4324
C       -2.4511  -1.1792  1.0664
N       1.5274  0.0406  -1.3155
N       1.0768  -1.4511  0.8469
N       -1.1553  -1.2930  -0.9842
N       -1.5047  -0.0665  1.3168
H       2.8581  -2.5164  0.5021
H       1.7376  -2.6619  -0.8465
H       -3.1257  -0.4744  -0.8186
H       -3.0085  -2.2290  -0.7882
H       1.6879  1.0350  -1.3441
H       1.1521  -0.2246  -2.2093
H       -1.9190  0.8371  1.1392
H       -1.1384  -0.0343  2.2522
H       -2.0688  -2.1010  1.4832
H       -3.3884  -0.9601  1.5511
H       0.5186  -2.2035  1.2026
H       1.4608  -0.9364  1.6243
H       3.3758  -0.8641  -1.6939
H       3.2702  -0.1304  -0.0967
H       -0.7297  -2.2037  -0.9894
H       -1.1636  -0.9345  -1.9198
