27

Co      0.0044  0.0170  0.0003
Cl      -1.0807  1.5987  -1.2129
Cl      1.1512  1.4318  1.3519
C       2.6467  -0.7121  -0.8341
C       2.1404  -1.9352  -0.0822
C       -2.5242  -1.3246  -0.4468
C       -2.4180  -1.1370  1.0586
N       1.4933  0.0972  -1.3128
N       1.0701  -1.5260  0.8796
N       -1.1547  -1.3382  -1.0657
N       -1.4630  -0.0376  1.3641
H       2.9535  -2.4245  0.4292
H       1.7063  -2.6502  -0.7656
H       -3.0595  -0.5034  -0.8911
H       -3.0556  -2.2360  -0.6754
H       1.7382  1.0678  -1.3725
H       1.2014  -0.1747  -2.2314
H       -1.9040  0.8632  1.3172
H       -1.0915  -0.1177  2.2909
H       -2.0496  -2.0350  1.5314
H       -3.3934  -0.9322  1.4733
H       0.5347  -2.3271  1.1557
H       1.4794  -1.1355  1.7098
H       3.2744  -1.0149  -1.6585
H       3.2316  -0.0868  -0.1805
H       -0.7973  -2.2712  -1.1077
H       -1.2283  -0.9960  -2.0060
