27

Co      -0.0058  -0.0318  -0.0020
Cl      -1.1056  1.6394  -1.2306
Cl      1.1792  1.4796  1.3824
C       2.7271  -0.7188  -0.8520
C       2.1828  -1.9863  -0.0777
C       -2.5540  -1.3238  -0.4515
C       -2.4447  -1.1774  1.0815
N       1.4971  0.0984  -1.3131
N       1.0471  -1.4941  0.8411
N       -1.1516  -1.3129  -1.0181
N       -1.4860  -0.0327  1.3379
H       2.9210  -2.5314  0.4962
H       1.7377  -2.6696  -0.7890
H       -3.0460  -0.4515  -0.8505
H       -3.0930  -2.2033  -0.7782
H       1.7018  1.0852  -1.3230
H       1.2317  -0.1389  -2.2502
H       -1.9393  0.8547  1.2116
H       -1.1336  -0.0295  2.2796
H       -2.0524  -2.0630  1.5590
H       -3.4068  -0.9675  1.5193
H       0.4888  -2.2631  1.1613
H       1.4549  -1.0651  1.6541
H       3.3202  -0.9924  -1.7129
H       3.3201  -0.0778  -0.2156
H       -0.7786  -2.2443  -1.0486
H       -1.1912  -0.9724  -1.9611
