27

Co      0.0027  0.0148  0.0027
Cl      -1.0820  1.5955  -1.2109
Cl      1.1473  1.4169  1.3497
C       2.6761  -0.7055  -0.8115
C       2.1217  -1.9296  -0.1093
C       -2.5275  -1.3172  -0.4426
C       -2.4365  -1.1537  1.0632
N       1.5104  0.0586  -1.3310
N       1.0825  -1.4636  0.8574
N       -1.1407  -1.2900  -1.0210
N       -1.4830  -0.0525  1.3513
H       2.8951  -2.4862  0.3953
H       1.6480  -2.5936  -0.8189
H       -3.0693  -0.4941  -0.8762
H       -3.0275  -2.2338  -0.7075
H       1.7346  1.0309  -1.4433
H       1.2317  -0.2716  -2.2354
H       -1.9292  0.8448  1.2700
H       -1.1283  -0.0997  2.2863
H       -2.0631  -2.0559  1.5291
H       -3.4092  -0.9515  1.4844
H       0.5583  -2.2434  1.2027
H       1.5268  -1.0322  1.6458
H       3.3539  -0.9818  -1.6049
H       3.2053  -0.0752  -0.1186
H       -0.7700  -2.2193  -1.0543
H       -1.2001  -0.9514  -1.9617
