27

Co      0.0009  0.0161  0.0011
Cl      -1.0706  1.5900  -1.2089
Cl      1.1426  1.4239  1.3478
C       2.6565  -0.7032  -0.8383
C       2.1247  -1.9293  -0.0840
C       -2.4994  -1.3198  -0.4507
C       -2.4307  -1.1428  1.0679
N       1.4832  0.0765  -1.3195
N       1.0186  -1.4860  0.8269
N       -1.1067  -1.2937  -1.0110
N       -1.4530  -0.0565  1.3624
H       2.9541  -2.4217  0.4015
H       1.6697  -2.6367  -0.7598
H       -2.9937  -0.4937  -0.9353
H       -3.0514  -2.2258  -0.6557
H       1.7482  1.0382  -1.4539
H       1.2913  -0.2563  -2.2514
H       -1.9270  0.8308  1.3312
H       -1.1262  -0.1364  2.3070
H       -2.0652  -2.0296  1.5706
H       -3.4239  -0.9455  1.4463
H       0.5017  -2.2915  1.1269
H       1.4920  -1.1610  1.6573
H       3.3493  -1.0553  -1.5922
H       3.1788  -0.0303  -0.1789
H       -0.7896  -2.2425  -1.0339
H       -1.1911  -1.0110  -1.9710
