27

Co      0.0253  0.0114  0.0256
Cl      -1.0868  1.6174  -1.2227
Cl      1.1249  1.3973  1.3218
C       2.6374  -0.6979  -0.8359
C       2.1253  -1.9290  -0.0818
C       -2.4995  -1.3083  -0.4617
C       -2.3882  -1.1291  1.0553
N       1.4479  0.0819  -1.2643
N       1.0260  -1.4729  0.8283
N       -1.1202  -1.3593  -1.0552
N       -1.4318  -0.0295  1.3558
H       2.9556  -2.4169  0.4021
H       1.6650  -2.6404  -0.7528
H       -2.9591  -0.4595  -0.9386
H       -3.1129  -2.1873  -0.6377
H       1.7096  1.0424  -1.4194
H       1.2147  -0.2580  -2.1823
H       -1.9108  0.8533  1.2961
H       -1.1306  -0.0899  2.3102
H       -1.9918  -2.0122  1.5375
H       -3.3754  -0.9612  1.4582
H       0.4900  -2.2691  1.1194
H       1.5067  -1.1662  1.6642
H       3.3003  -1.0315  -1.6198
H       3.1834  -0.0349  -0.1854
H       -0.8472  -2.3231  -1.0869
H       -1.2037  -1.0664  -2.0120
