27

Co      0.0138  0.0370  -0.0065
Cl      -1.0811  1.5943  -1.2082
Cl      1.1499  1.4221  1.3514
C       2.6624  -0.7165  -0.8171
C       2.1444  -1.9487  -0.1001
C       -2.5243  -1.3127  -0.4430
C       -2.4322  -1.1581  1.0669
N       1.4936  0.0673  -1.3037
N       1.0851  -1.4961  0.8509
N       -1.1520  -1.3527  -1.0587
N       -1.5069  -0.0365  1.3877
H       2.9385  -2.4593  0.4203
H       1.7025  -2.6453  -0.7955
H       -3.0276  -0.4616  -0.8674
H       -3.0838  -2.1973  -0.7000
H       1.7391  1.0339  -1.4243
H       1.1902  -0.2554  -2.2034
H       -1.9654  0.8536  1.3203
H       -1.1487  -0.1003  2.3215
H       -2.0437  -2.0545  1.5273
H       -3.4175  -0.9876  1.4747
H       0.5355  -2.2769  1.1554
H       1.5085  -1.0928  1.6649
H       3.3172  -0.9809  -1.6315
H       3.2113  -0.0895  -0.1342
H       -0.8021  -2.2900  -1.0743
H       -1.2250  -1.0387  -2.0084
