27

Co      -0.0263  -0.0215  -0.0120
Cl      -1.0778  1.5874  -1.1978
Cl      1.1761  1.4619  1.3795
C       2.6924  -0.7215  -0.8266
C       2.1457  -1.9330  -0.1050
C       -2.5399  -1.3009  -0.4399
C       -2.4225  -1.1604  1.0631
N       1.5142  0.0620  -1.2972
N       1.0727  -1.4450  0.8190
N       -1.1503  -1.2720  -1.0077
N       -1.4838  -0.0405  1.3096
H       2.9111  -2.4529  0.4531
H       1.7070  -2.6357  -0.7984
H       -3.0794  -0.4703  -0.8591
H       -3.0376  -2.2152  -0.7225
H       1.7345  1.0439  -1.3272
H       1.2575  -0.1936  -2.2302
H       -1.9382  0.8477  1.1814
H       -1.1345  -0.0336  2.2487
H       -2.0132  -2.0552  1.5111
H       -3.3819  -0.9764  1.5178
H       0.5725  -2.2241  1.2027
H       1.5064  -0.9666  1.5906
H       3.3297  -1.0002  -1.6501
H       3.2581  -0.0989  -0.1539
H       -0.7759  -2.2023  -1.0295
H       -1.2022  -0.9441  -1.9537
