27

Co      -0.0364  -0.0187  -0.0001
Cl      -1.0834  1.6091  -1.2125
Cl      1.1630  1.4475  1.3662
C       2.7237  -0.7000  -0.8305
C       2.1534  -1.9749  -0.0926
C       -2.5306  -1.3120  -0.4613
C       -2.4186  -1.1654  1.0677
N       1.4930  0.0822  -1.3404
N       1.0460  -1.4735  0.8484
N       -1.1136  -1.2627  -0.9761
N       -1.4439  -0.0367  1.3141
H       2.8771  -2.5685  0.4534
H       1.6779  -2.6191  -0.8250
H       -3.0418  -0.4565  -0.8705
H       -3.0297  -2.2100  -0.7944
H       1.6811  1.0695  -1.3827
H       1.2475  -0.1980  -2.2709
H       -1.8975  0.8570  1.2266
H       -1.0651  -0.0536  2.2420
H       -2.0253  -2.0590  1.5342
H       -3.3686  -0.9468  1.5286
H       0.5193  -2.2405  1.2204
H       1.4812  -1.0137  1.6301
H       3.3630  -0.9593  -1.6606
H       3.2672  -0.0518  -0.1640
H       -0.7093  -2.1811  -0.9492
H       -1.1235  -0.9630  -1.9313
