27

Co      0.0117  0.0170  -0.0067
Cl      -1.0776  1.6010  -1.2052
Cl      1.1451  1.4203  1.3494
C       2.5896  -0.7098  -0.7934
C       2.1046  -1.8975  -0.1167
C       -2.4925  -1.2794  -0.4356
C       -2.3843  -1.1342  1.0439
N       1.4706  0.0439  -1.2694
N       1.0818  -1.4922  0.8349
N       -1.1278  -1.3609  -1.0400
N       -1.4686  -0.0459  1.3458
H       2.9463  -2.3453  0.3919
H       1.6982  -2.6387  -0.7894
H       -3.0010  -0.4473  -0.8823
H       -3.0515  -2.1763  -0.6515
H       1.7226  1.0086  -1.3900
H       1.1641  -0.2755  -2.1686
H       -1.9174  0.8474  1.2546
H       -1.1266  -0.0895  2.2830
H       -1.9849  -2.0426  1.4715
H       -3.3609  -0.9804  1.4743
H       0.5742  -2.2960  1.1452
H       1.5076  -1.0853  1.6455
H       3.2705  -0.9768  -1.5835
H       3.1239  -0.0995  -0.0879
H       -0.8018  -2.3052  -1.0158
H       -1.1944  -1.0880  -2.0032
