27

Co      0.0012  -0.0308  -0.0168
Cl      -1.1112  1.6463  -1.2290
Cl      1.1831  1.4828  1.3889
C       2.7180  -0.7163  -0.8295
C       2.1836  -2.0039  -0.0887
C       -2.5689  -1.3111  -0.4472
C       -2.4529  -1.2007  1.0831
N       1.4781  0.0831  -1.2993
N       1.0676  -1.4899  0.8375
N       -1.1453  -1.2875  -0.9650
N       -1.4939  -0.0488  1.2998
H       2.9229  -2.5595  0.4753
H       1.7315  -2.6763  -0.8073
H       -3.0482  -0.4225  -0.8304
H       -3.0956  -2.1833  -0.8179
H       1.6812  1.0711  -1.3241
H       1.2207  -0.1678  -2.2338
H       -1.9588  0.8310  1.1367
H       -1.1493  -0.0025  2.2460
H       -2.0433  -2.0899  1.5412
H       -3.4037  -0.9959  1.5490
H       0.5213  -2.2464  1.2082
H       1.4955  -1.0264  1.6215
H       3.3388  -0.9465  -1.6825
H       3.2740  -0.0753  -0.1631
H       -0.7605  -2.2155  -0.9358
H       -1.1644  -1.0016  -1.9273
