27

Co      -0.0278  -0.0311  -0.0207
Cl      -1.0911  1.6229  -1.2181
Cl      1.1706  1.4617  1.3781
C       2.6840  -0.6947  -0.8396
C       2.1450  -1.9658  -0.1032
C       -2.5139  -1.2954  -0.4413
C       -2.4191  -1.1534  1.0715
N       1.4956  0.0899  -1.3336
N       1.0570  -1.5178  0.9076
N       -1.1108  -1.2738  -0.9960
N       -1.4636  -0.0462  1.3248
H       2.9314  -2.4892  0.4166
H       1.6798  -2.6596  -0.7896
H       -3.0426  -0.4621  -0.8737
H       -3.0091  -2.2087  -0.7319
H       1.6934  1.0788  -1.3285
H       1.2498  -0.1440  -2.2781
H       -1.9095  0.8487  1.2127
H       -1.0975  -0.0512  2.2582
H       -2.0251  -2.0542  1.5189
H       -3.3796  -0.9583  1.5185
H       0.5709  -2.3125  1.2784
H       1.5017  -1.0542  1.6823
H       3.3708  -0.9199  -1.6439
H       3.1906  -0.0653  -0.1277
H       -0.7325  -2.2022  -0.9989
H       -1.1520  -0.9594  -1.9460
