27

Co      -0.0345  -0.0279  -0.0110
Cl      -1.0964  1.6233  -1.2169
Cl      1.1958  1.4922  1.4045
C       2.7022  -0.7194  -0.8198
C       2.1455  -1.9391  -0.1134
C       -2.5565  -1.3165  -0.4431
C       -2.4310  -1.1656  1.0591
N       1.5374  0.0565  -1.3410
N       1.0982  -1.4920  0.8623
N       -1.1679  -1.2977  -1.0124
N       -1.4831  -0.0513  1.3089
H       2.9235  -2.4966  0.3915
H       1.6755  -2.6044  -0.8235
H       -3.0943  -0.4855  -0.8697
H       -3.0611  -2.2303  -0.7170
H       1.7532  1.0398  -1.3757
H       1.3013  -0.2134  -2.2743
H       -1.9339  0.8411  1.2053
H       -1.1188  -0.0663  2.2437
H       -2.0261  -2.0623  1.5064
H       -3.3874  -0.9764  1.5168
H       0.6204  -2.2885  1.2399
H       1.5408  -1.0190  1.6322
H       3.3748  -1.0061  -1.6126
H       3.2395  -0.0878  -0.1330
H       -0.7937  -2.2301  -1.0247
H       -1.2124  -0.9787  -1.9605
