27

Co      0.0146  0.0157  -0.0072
Cl      -1.0720  1.5902  -1.2064
Cl      1.1377  1.4076  1.3416
C       2.6090  -0.6878  -0.8301
C       2.1037  -1.9181  -0.1057
C       -2.4809  -1.3029  -0.4423
C       -2.3989  -1.1106  1.0594
N       1.4602  0.0732  -1.2760
N       1.0526  -1.4862  0.8878
N       -1.1214  -1.3405  -1.0879
N       -1.4554  -0.0411  1.3795
H       2.9822  -2.3762  0.3357
H       1.6238  -2.6464  -0.7426
H       -2.9913  -0.4985  -0.9499
H       -3.0608  -2.2168  -0.5628
H       1.7287  1.0334  -1.4154
H       1.2397  -0.2564  -2.2010
H       -1.9245  0.8490  1.3352
H       -1.1440  -0.1227  2.3290
H       -2.0160  -2.0017  1.5343
H       -3.4018  -0.9564  1.4339
H       0.5758  -2.2991  1.2322
H       1.5669  -1.1349  1.6813
H       3.3552  -0.9715  -1.5655
H       3.0810  -0.0398  -0.1080
H       -0.8550  -2.3074  -1.1687
H       -1.2517  -1.0154  -2.0322
