27

Co      0.0016  0.0044  -0.0070
Cl      -1.0938  1.6103  -1.2122
Cl      1.1824  1.4708  1.3890
C       2.7291  -0.7107  -0.8117
C       2.1612  -1.9865  -0.1088
C       -2.5861  -1.3335  -0.4514
C       -2.4514  -1.1873  1.0672
N       1.5066  0.0673  -1.3449
N       1.0910  -1.4742  0.8625
N       -1.1882  -1.3294  -1.0257
N       -1.4996  -0.0428  1.3303
H       2.8423  -2.6002  0.4825
H       1.7027  -2.6193  -0.8640
H       -3.1247  -0.4685  -0.8106
H       -3.0759  -2.2246  -0.8249
H       1.6754  1.0573  -1.4045
H       1.1390  -0.2306  -2.2305
H       -1.9241  0.8600  1.2037
H       -1.0998  -0.0492  2.2517
H       -2.0676  -2.0950  1.5087
H       -3.3902  -0.9584  1.5486
H       0.5016  -2.2124  1.2011
H       1.4653  -0.9683  1.6491
H       3.3416  -0.8913  -1.6901
H       3.2910  -0.1012  -0.1205
H       -0.7548  -2.2375  -1.0257
H       -1.1970  -0.9734  -1.9627
