27

Co      0.0000  -0.0244  -0.0017
Cl      0.0002  -2.2984  -0.2151
Cl      -0.0001  2.3321  0.2185
N       -1.5099  0.1550  -1.3768
N       -1.5099  -0.1501  1.3750
N       1.5099  0.1550  -1.3767
N       1.5098  -0.1496  1.3750
C       -2.7788  0.4078  -0.6371
C       -2.7790  -0.4071  0.6388
C       2.7789  0.4078  -0.6372
C       2.7790  -0.4067  0.6390
H       -1.2153  0.9281  -1.9529
H       -2.8564  1.4582  -0.4124
H       -3.6282  0.1228  -1.2386
H       -3.6304  -0.1183  1.2381
H       -2.8570  -1.4574  0.4175
H       -1.4365  0.7446  1.8404
H       -1.2342  -0.8950  1.9878
H       1.4479  -0.7132  -1.8835
H       1.2154  0.9278  -1.9532
H       3.6281  0.1224  -1.2387
H       2.8565  1.4582  -0.4130
H       2.8573  -1.4571  0.4181
H       3.6281  -0.1175  1.2405
H       1.2341  -0.8942  1.9882
H       1.4339  0.7453  1.8401
H       -1.4479  -0.7130  -1.8839
