27

Co      0.0370  -0.0031  0.0194
Cl      -0.0030  -2.2608  -0.2123
Cl      -0.0034  2.2629  0.2104
N       -1.4547  0.1590  -1.3275
N       -1.4612  -0.1612  1.3458
N       1.4604  0.1519  -1.3419
N       1.3884  -0.1536  1.2867
C       -2.7675  0.3960  -0.6509
C       -2.7677  -0.3925  0.6423
C       2.7643  0.4024  -0.6612
C       2.7153  -0.3837  0.6330
H       -1.2792  0.9131  -1.9599
H       -2.8565  1.4536  -0.4647
H       -3.5843  0.0902  -1.2841
H       -3.5916  -0.1026  1.2749
H       -2.8428  -1.4480  0.4471
H       -1.5124  0.6872  1.8790
H       -1.3104  -0.9222  1.9803
H       1.5030  -0.7027  -1.8586
H       1.2679  0.8998  -1.9801
H       3.5893  0.0842  -1.2760
H       2.8534  1.4619  -0.4820
H       2.7908  -1.4412  0.4300
H       3.5082  -0.1059  1.3060
H       1.2006  -0.9281  1.8975
H       1.4206  0.6821  1.8369
H       -1.4963  -0.6945  -1.8566
