27

Co      0.0370  0.0213  0.0211
Cl      -0.0030  -2.3017  -0.2186
Cl      -0.0034  2.2701  0.2133
N       -1.4669  0.1463  -1.3120
N       -1.4735  -0.1535  1.3320
N       1.4727  0.1410  -1.3265
N       1.4006  -0.1478  1.2729
C       -2.7849  0.4060  -0.6514
C       -2.7852  -0.4025  0.6411
C       2.7817  0.4124  -0.6617
C       2.7328  -0.3937  0.6318
H       -1.3351  0.8550  -2.0135
H       -2.8141  1.4685  -0.4673
H       -3.6516  0.1327  -1.2355
H       -3.6567  -0.1485  1.2268
H       -2.8005  -1.4629  0.4447
H       -1.6211  0.6778  1.8817
H       -1.3477  -0.8978  1.9986
H       1.5986  -0.7253  -1.8194
H       1.3238  0.8437  -2.0319
H       3.6567  0.1248  -1.2273
H       2.8129  1.4749  -0.4865
H       2.7504  -1.4542  0.4295
H       3.5756  -0.1499  1.2557
H       1.2379  -0.9056  1.9140
H       1.5297  0.6727  1.8414
H       -1.5938  -0.7171  -1.8155
