27

Co      0.0000  0.0000  0.0000
Cl      0.0002  -2.2734  -0.2132
Cl      -0.0001  2.2735  0.2133
N       -1.5125  0.1471  -1.3792
N       -1.5125  -0.1473  1.3791
N       1.5125  0.1471  -1.3791
N       1.5125  -0.1468  1.3792
C       -2.7730  0.4235  -0.6353
C       -2.7733  -0.4228  0.6353
C       2.7731  0.4235  -0.6354
C       2.7733  -0.4224  0.6355
H       -1.2581  0.9046  -1.9826
H       -2.9117  1.4714  -0.4230
H       -3.5548  0.1007  -1.3102
H       -3.5570  -0.0996  1.3081
H       -2.9123  -1.4707  0.4230
H       -1.5480  0.7107  1.8953
H       -1.2586  -0.9052  1.9821
H       1.5460  -0.7114  -1.8946
H       1.2583  0.9043  -1.9828
H       3.5548  0.1003  -1.3103
H       2.9118  1.4715  -0.4236
H       2.9126  -1.4704  0.4237
H       3.5547  -0.0987  1.3105
H       1.2585  -0.9044  1.9825
H       1.5455  0.7115  1.8949
H       -1.5460  -0.7111  -1.8950
