27

Co      0.0125  0.0000  0.0000
Cl      0.0002  -2.2859  -0.2159
Cl      -0.0001  2.2859  0.2160
N       -1.4637  0.1507  -1.3359
N       -1.4637  -0.1508  1.3358
N       1.4432  0.1438  -1.2858
N       1.4432  -0.1435  1.2858
C       -2.7710  0.4030  -0.6487
C       -2.7713  -0.4023  0.6487
C       2.7711  0.4052  -0.6443
C       2.7712  -0.4041  0.6443
H       -1.3313  0.8835  -2.0112
H       -2.7906  1.4645  -0.4601
H       -3.6472  0.1387  -1.2242
H       -3.6449  -0.1376  1.2267
H       -2.7913  -1.4637  0.4601
H       -1.5988  0.6924  1.8700
H       -1.3318  -0.8840  2.0107
H       1.5718  -0.7044  -1.8090
H       1.2906  0.8672  -1.9682
H       3.6244  0.1406  -1.2471
H       2.7976  1.4667  -0.4539
H       2.7984  -1.4656  0.4539
H       3.6243  -0.1390  1.2473
H       1.2907  -0.8673  1.9679
H       1.5712  0.7045  1.8093
H       -1.6014  -0.6927  -1.8697
