27

Co      0.0000  0.0244  0.0017
Cl      0.0002  -2.2841  -0.2167
Cl      -0.0001  2.2505  0.2135
N       -1.4474  0.1421  -1.3447
N       -1.4474  -0.1473  1.3463
N       1.4474  0.1421  -1.3447
N       1.4474  -0.1468  1.3464
C       -2.7516  0.4013  -0.6448
C       -2.7518  -0.4006  0.6431
C       2.7516  0.4013  -0.6449
C       2.7518  -0.4002  0.6433
H       -1.3953  0.8697  -2.0466
H       -2.7699  1.4604  -0.4493
H       -3.5852  0.1595  -1.2837
H       -3.5829  -0.1617  1.2844
H       -2.7706  -1.4597  0.4443
H       -1.6309  0.6662  1.9231
H       -1.3772  -0.9039  2.0107
H       1.6200  -0.6988  -1.8786
H       1.3955  0.8694  -2.0468
H       3.5852  0.1591  -1.2838
H       2.7700  1.4604  -0.4499
H       2.7709  -1.4593  0.4449
H       3.5851  -0.1609  1.2823
H       1.3771  -0.9031  2.0111
H       1.6329  0.6669  1.9228
H       -1.6200  -0.6985  -1.8790
