27

Co      -0.0370  0.0000  0.0000
Cl      0.0035  -2.3171  -0.2205
Cl      0.0031  2.3172  0.2206
N       -1.4976  0.1325  -1.3629
N       -1.4976  -0.1326  1.3628
N       1.5312  0.1395  -1.3851
N       1.5311  -0.1392  1.3851
C       -2.7630  0.4180  -0.6239
C       -2.7632  -0.4173  0.6239
C       2.7909  0.4190  -0.6237
C       2.7910  -0.4179  0.6238
H       -1.2745  0.8799  -1.9885
H       -2.8170  1.4640  -0.3740
H       -3.5695  0.1806  -1.3012
H       -3.5717  -0.1795  1.2990
H       -2.8177  -1.4633  0.3741
H       -1.4799  0.7454  1.8484
H       -1.2749  -0.8805  1.9880
H       1.5203  -0.7444  -1.8674
H       1.3352  0.8827  -2.0203
H       3.6086  0.1810  -1.2900
H       2.8449  1.4632  -0.3752
H       2.8457  -1.4621  0.3752
H       3.6085  -0.1794  1.2901
H       1.3354  -0.8828  2.0200
H       1.5198  0.7445  1.8678
H       -1.4779  -0.7457  -1.8481
