27

Co      -0.0370  -0.0244  -0.0017
Cl      0.0035  -2.3003  -0.2188
Cl      0.0031  2.3340  0.2223
N       -1.5026  0.1387  -1.3485
N       -1.5026  -0.1338  1.3467
N       1.5362  0.1457  -1.3707
N       1.5362  -0.1403  1.3691
C       -2.7470  0.4031  -0.6195
C       -2.7472  -0.4024  0.6211
C       2.7748  0.4040  -0.6192
C       2.7750  -0.4029  0.6210
H       -1.3205  0.8934  -1.9827
H       -2.7882  1.4573  -0.3967
H       -3.6077  0.1494  -1.2171
H       -3.6076  -0.1449  1.2189
H       -2.7888  -1.4552  0.4018
H       -1.5573  0.7390  1.8336
H       -1.3394  -0.8603  2.0176
H       1.6135  -0.7061  -1.8964
H       1.3813  0.8962  -2.0145
H       3.6467  0.1498  -1.2059
H       2.8160  1.4550  -0.3978
H       2.8169  -1.4539  0.4029
H       3.6467  -0.1448  1.2077
H       1.3999  -0.8626  2.0495
H       1.5995  0.7382  1.8530
H       -1.5711  -0.7074  -1.8771
