27

Co      0.0000  0.0000  0.0000
Cl      0.0002  -2.2699  -0.2132
Cl      -0.0001  2.2699  0.2133
N       -1.5025  0.1506  -1.3353
N       -1.5025  -0.1507  1.3352
N       1.5025  0.1505  -1.3352
N       1.5024  -0.1502  1.3352
C       -2.7659  0.3925  -0.6271
C       -2.7661  -0.3918  0.6271
C       2.7659  0.3925  -0.6272
C       2.7661  -0.3914  0.6273
H       -1.3423  0.9024  -1.9785
H       -2.8415  1.4486  -0.4263
H       -3.6103  0.1021  -1.2314
H       -3.6103  -0.1010  1.2316
H       -2.8422  -1.4465  0.4263
H       -1.5563  0.7021  1.8578
H       -1.3427  -0.9030  1.9780
H       1.5566  -0.7027  -1.8571
H       1.3425  0.9021  -1.9787
H       3.6103  0.1017  -1.2316
H       2.8416  1.4472  -0.4270
H       2.8425  -1.4461  0.4270
H       3.6102  -0.1001  1.2317
H       1.3426  -0.9022  1.9784
H       1.5561  0.7028  1.8575
H       -1.5566  -0.7024  -1.8575
