27

Co      0.0000  0.0000  0.0000
Cl      0.0002  -2.2930  -0.2159
Cl      -0.0001  2.2931  0.2160
N       -1.4862  0.1343  -1.3707
N       -1.4862  -0.1344  1.3706
N       1.4863  0.1342  -1.3706
N       1.4862  -0.1339  1.3706
C       -2.7662  0.3995  -0.6399
C       -2.7664  -0.3988  0.6399
C       2.7663  0.3995  -0.6401
C       2.7664  -0.3984  0.6401
H       -1.2859  0.9369  -1.9435
H       -2.7868  1.4542  -0.4254
H       -3.6209  0.1623  -1.2523
H       -3.6209  -0.1612  1.2525
H       -2.7875  -1.4535  0.4254
H       -1.5513  0.6752  1.9639
H       -1.2863  -0.9374  1.9430
H       1.5516  -0.6759  -1.9632
H       1.2861  0.9366  -1.9460
H       3.6209  0.1597  -1.2525
H       2.7869  1.4543  -0.4260
H       2.7878  -1.4532  0.4261
H       3.6208  -0.1581  1.2526
H       1.2884  -0.9367  1.9456
H       1.5511  0.6760  1.9636
H       -1.5516  -0.6756  -1.9636
