27

Co      0.0000  -0.0244  -0.0017
Cl      0.0002  -2.2745  -0.2180
Cl      -0.0001  2.3082  0.2214
N       -1.4965  0.1351  -1.3521
N       -1.4965  -0.1302  1.3504
N       1.4965  0.1369  -1.3521
N       1.4965  -0.1315  1.3504
C       -2.7622  0.4230  -0.6254
C       -2.7625  -0.4223  0.6270
C       2.7623  0.4229  -0.6255
C       2.7625  -0.4218  0.6273
H       -1.1964  0.8796  -1.9619
H       -2.8080  1.4714  -0.3756
H       -3.6140  0.1760  -1.2372
H       -3.6162  -0.1715  1.2368
H       -2.8086  -1.4707  0.3807
H       -1.4364  0.7833  1.7826
H       -1.2154  -0.8464  1.9968
H       1.4460  -0.7519  -1.8275
H       1.1966  0.8811  -1.9603
H       3.6139  0.1737  -1.2374
H       2.8100  1.4696  -0.3781
H       2.8108  -1.4685  0.3832
H       3.6139  -0.1688  1.2392
H       1.2153  -0.8475  1.9953
H       1.4320  0.7840  1.7841
H       -1.4479  -0.7517  -1.8260
