27

Co      0.0125  0.0000  0.0000
Cl      0.0002  -2.2637  -0.2151
Cl      -0.0001  2.2637  0.2152
N       -1.4608  0.1458  -1.3487
N       -1.4608  -0.1460  1.3486
N       1.4403  0.1389  -1.2986
N       1.4403  -0.1387  1.2986
C       -2.7517  0.4061  -0.6397
C       -2.7519  -0.4054  0.6396
C       2.7518  0.4083  -0.6352
C       2.7519  -0.4072  0.6353
H       -1.2923  0.8891  -1.9977
H       -2.7993  1.4608  -0.4281
H       -3.5891  0.1432  -1.2643
H       -3.5891  -0.1421  1.2645
H       -2.7999  -1.4601  0.4281
H       -1.5194  0.7139  1.8629
H       -1.2927  -0.8897  1.9972
H       1.4900  -0.7259  -1.8019
H       1.2515  0.8729  -1.9547
H       3.5663  0.1451  -1.2872
H       2.8062  1.4631  -0.4219
H       2.8070  -1.4620  0.4220
H       3.5663  -0.1436  1.2874
H       1.2516  -0.8729  1.9543
H       1.4895  0.7260  1.8023
H       -1.5196  -0.7142  -1.8626
