27

Co      0.0370  -0.0031  0.0194
Cl      -0.0030  -2.2848  -0.2169
Cl      -0.0034  2.2869  0.2150
N       -1.4619  0.1452  -1.3281
N       -1.4685  -0.1473  1.3464
N       1.4676  0.1399  -1.3425
N       1.3956  -0.1416  1.2873
C       -2.8010  0.4210  -0.6542
C       -2.8012  -0.4174  0.6456
C       2.7978  0.4273  -0.6645
C       2.7489  -0.4086  0.6363
H       -1.2705  0.8752  -1.9840
H       -2.8430  1.4753  -0.4396
H       -3.6135  0.1673  -1.3179
H       -3.6208  -0.1797  1.3086
H       -2.8293  -1.4711  0.4220
H       -1.5302  0.7161  1.8527
H       -1.3016  -0.8844  2.0044
H       1.5189  -0.7316  -1.8342
H       1.2592  0.8639  -2.0023
H       3.6185  0.1594  -1.3097
H       2.8418  1.4831  -0.4588
H       2.7792  -1.4623  0.4069
H       3.5375  -0.1811  1.3397
H       1.1919  -0.8922  1.9198
H       1.4366  0.7111  1.8125
H       -1.5141  -0.7234  -1.8303
