27

Co      -0.0370  -0.0213  -0.0211
Cl      0.0035  -2.2791  -0.2170
Cl      0.0031  2.3108  0.2225
N       -1.4877  0.1327  -1.3521
N       -1.5204  -0.1258  1.3687
N       1.5213  0.1397  -1.3743
N       1.5539  -0.1323  1.3910
C       -2.7089  0.4184  -0.6034
C       -2.7337  -0.4279  0.6234
C       2.7368  0.4193  -0.6031
C       2.7614  -0.4284  0.6233
H       -1.2290  0.8974  -1.9495
H       -2.8270  1.4648  -0.3668
H       -3.5032  0.1264  -1.2709
H       -3.5422  -0.1036  1.2603
H       -2.8665  -1.4749  0.4066
H       -1.5569  0.7612  1.8352
H       -1.2663  -0.8459  2.0151
H       1.5780  -0.7150  -1.8980
H       1.2898  0.9002  -1.9813
H       3.5422  0.1268  -1.2597
H       2.8549  1.4625  -0.3680
H       2.8946  -1.4737  0.4078
H       3.5790  -0.1035  1.2514
H       1.3269  -0.8482  2.0470
H       1.5968  0.7604  1.8546
H       -1.5356  -0.7153  -1.8787
