27

Co      0.0000  0.0031  -0.0194
Cl      0.0002  -2.3127  -0.2157
Cl      -0.0001  2.3107  0.2179
N       -1.4827  0.1511  -1.3380
N       -1.5155  -0.1492  1.3563
N       1.4828  0.1511  -1.3379
N       1.5154  -0.1487  1.3564
C       -2.7689  0.4039  -0.6264
C       -2.7937  -0.4134  0.6448
C       2.7690  0.4039  -0.6265
C       2.7937  -0.4130  0.6450
H       -1.2010  0.9109  -1.9349
H       -2.8453  1.4532  -0.3951
H       -3.5990  0.1279  -1.2577
H       -3.6380  -0.1084  1.2453
H       -2.8848  -1.4648  0.4299
H       -1.4464  0.7429  1.8264
H       -1.2198  -0.8931  1.9651
H       1.4117  -0.7303  -1.8257
H       1.2011  0.9106  -1.9352
H       3.5990  0.1275  -1.2578
H       2.8454  1.4532  -0.3958
H       2.8851  -1.4644  0.4306
H       3.6357  -0.1076  1.2477
H       1.2197  -0.8923  1.9655
H       1.4439  0.7437  1.8261
H       -1.4117  -0.7290  -1.8261
