27

Co      0.0000  0.0031  -0.0194
Cl      0.0002  -2.2905  -0.2149
Cl      -0.0001  2.2885  0.2170
N       -1.4856  0.1461  -1.3624
N       -1.4790  -0.1442  1.3439
N       1.4463  0.1461  -1.3255
N       1.5183  -0.1437  1.3807
C       -2.7641  0.4060  -0.6264
C       -2.7643  -0.4082  0.6350
C       2.7396  0.3986  -0.6167
C       2.7889  -0.4151  0.6450
H       -1.2863  0.9075  -1.9797
H       -2.8418  1.4529  -0.3915
H       -3.5598  0.1444  -1.3082
H       -3.5546  -0.1298  1.3155
H       -2.8568  -1.4571  0.4091
H       -1.4488  0.7305  1.8415
H       -1.2560  -0.8994  1.9583
H       1.4141  -0.7179  -1.8408
H       1.2374  0.9170  -1.9284
H       3.5156  0.1490  -1.3280
H       2.8174  1.4456  -0.3749
H       2.8816  -1.4641  0.4269
H       3.5965  -0.1241  1.2983
H       1.3050  -0.8888  2.0102
H       1.4954  0.7386  1.8632
H       -1.4632  -0.7240  -1.8633
