27

Co      0.0370  0.0213  0.0211
Cl      -0.0030  -2.3053  -0.2186
Cl      -0.0034  2.2737  0.2133
N       -1.4919  0.1505  -1.3418
N       -1.4984  -0.1577  1.3618
N       1.4976  0.1452  -1.3562
N       1.4256  -0.1520  1.3027
C       -2.7753  0.3874  -0.6606
C       -2.7755  -0.3838  0.6503
C       2.7721  0.3937  -0.6709
C       2.7232  -0.3750  0.6411
H       -1.4397  0.8921  -2.0214
H       -2.7607  1.4435  -0.4340
H       -3.5853  0.2117  -1.3587
H       -3.5927  -0.2275  1.3478
H       -2.7470  -1.4379  0.4114
H       -1.5336  0.6802  1.9108
H       -1.4523  -0.9349  2.0065
H       1.5088  -0.7277  -1.8485
H       1.4284  0.8808  -2.0397
H       3.5904  0.2038  -1.3520
H       2.7580  1.4499  -0.4532
H       2.6955  -1.4292  0.3962
H       3.5093  -0.2289  1.3803
H       1.3425  -0.9427  1.9218
H       1.4400  0.6752  1.8706
H       -1.5040  -0.7195  -1.8447
