27

Co      0.0000  0.0000  0.0000
Cl      0.0002  -2.3116  -0.2168
Cl      -0.0001  2.3117  0.2169
N       -1.4895  0.1478  -1.3404
N       -1.4895  -0.1479  1.3403
N       1.4895  0.1477  -1.3404
N       1.4895  -0.1474  1.3404
C       -2.7770  0.4216  -0.6419
C       -2.7772  -0.4209  0.6419
C       2.7770  0.4216  -0.6421
C       2.7772  -0.4205  0.6421
H       -1.2668  0.8867  -1.9784
H       -2.8901  1.4763  -0.4517
H       -3.5860  0.0964  -1.2815
H       -3.5860  -0.0953  1.2816
H       -2.8907  -1.4756  0.4517
H       -1.5992  0.6991  1.8682
H       -1.2673  -0.8873  1.9780
H       1.5994  -0.6997  -1.8675
H       1.2670  0.8864  -1.9787
H       3.5860  0.0960  -1.2816
H       2.8902  1.4763  -0.4523
H       2.8910  -1.4752  0.4523
H       3.5859  -0.0944  1.2817
H       1.2672  -0.8865  1.9783
H       1.5989  0.6998  1.8679
H       -1.5994  -0.6994  -1.8679
