27

Co      0.0370  0.0244  0.0017
Cl      -0.0030  -2.2822  -0.2130
Cl      -0.0034  2.2486  0.2097
N       -1.4352  0.1597  -1.3394
N       -1.4745  -0.1649  1.3778
N       1.4409  0.1526  -1.3538
N       1.4016  -0.1573  1.3187
C       -2.7551  0.3850  -0.6491
C       -2.7798  -0.3917  0.6572
C       2.7519  0.3914  -0.6594
C       2.7275  -0.3829  0.6480
H       -1.3935  0.9108  -2.0150
H       -2.8043  1.4460  -0.4719
H       -3.5733  0.1145  -1.2972
H       -3.6152  -0.1119  1.2783
H       -2.8295  -1.4526  0.4840
H       -1.6551  0.6410  1.9699
H       -1.4245  -0.9352  2.0307
H       1.6017  -0.6752  -1.9057
H       1.3822  0.8976  -2.0352
H       3.5784  0.1085  -1.2890
H       2.8012  1.4542  -0.4892
H       2.7775  -1.4458  0.4670
H       3.5341  -0.1152  1.3071
H       1.3148  -0.9411  1.9480
H       1.5656  0.6359  1.9278
H       -1.5951  -0.6660  -1.9037
