27

Co      -0.0245  -0.0244  -0.0017
Cl      0.0035  -2.2585  -0.2153
Cl      0.0031  2.2922  0.2188
N       -1.5061  0.1349  -1.3826
N       -1.5061  -0.1299  1.3808
N       1.5192  0.1350  -1.3547
N       1.5191  -0.1297  1.3530
C       -2.7527  0.4201  -0.6010
C       -2.7529  -0.4194  0.6027
C       2.7805  0.4233  -0.5962
C       2.7807  -0.4222  0.5980
H       -1.3004  0.8869  -2.0128
H       -2.8671  1.4714  -0.3950
H       -3.6056  0.0856  -1.1767
H       -3.6056  -0.0812  1.1785
H       -2.8678  -1.4693  0.4001
H       -1.6448  0.7305  1.8841
H       -1.3194  -0.8538  2.0476
H       1.6714  -0.7089  -1.8865
H       1.3202  0.8738  -2.0013
H       3.6219  0.0883  -1.1868
H       2.9032  1.4714  -0.3893
H       2.9040  -1.4703  0.3944
H       3.6219  -0.0833  1.1887
H       1.3389  -0.8402  2.0363
H       1.6574  0.7410  1.8431
H       -1.6586  -0.6989  -1.9275
