27

Co      -0.0370  0.0031  -0.0194
Cl      0.0035  -2.2727  -0.2160
Cl      0.0031  2.2708  0.2181
N       -1.5027  0.1319  -1.3315
N       -1.4961  -0.1299  1.3130
N       1.4970  0.1388  -1.3169
N       1.5689  -0.1365  1.3721
C       -2.7436  0.4210  -0.6158
C       -2.7439  -0.4231  0.6243
C       2.7469  0.4146  -0.6057
C       2.7962  -0.4310  0.6340
H       -1.2916  0.8597  -1.9903
H       -2.8374  1.4742  -0.4058
H       -3.5757  0.1195  -1.2317
H       -3.5683  -0.1049  1.2412
H       -2.8524  -1.4770  0.4234
H       -1.6111  0.7280  1.8197
H       -1.2614  -0.8517  1.9690
H       1.6211  -0.7137  -1.8387
H       1.3033  0.8723  -1.9706
H       3.5706  0.1248  -1.2401
H       2.8407  1.4645  -0.3898
H       2.9049  -1.4831  0.4418
H       3.6516  -0.0999  1.2104
H       1.3709  -0.8442  2.0525
H       1.7024  0.7345  1.8612
H       -1.6278  -0.7214  -1.8415
