27

Co      0.0000  0.0031  -0.0194
Cl      0.0002  -2.2985  -0.2168
Cl      -0.0001  2.2965  0.2190
N       -1.5272  0.1393  -1.3537
N       -1.5600  -0.1374  1.3720
N       1.5273  0.1411  -1.3537
N       1.5599  -0.1388  1.3721
C       -2.7642  0.4007  -0.6019
C       -2.7889  -0.4102  0.6203
C       2.7642  0.4007  -0.6020
C       2.7889  -0.4098  0.6205
H       -1.3397  0.8981  -1.9788
H       -2.8347  1.4471  -0.3527
H       -3.5796  0.1533  -1.2644
H       -3.6187  -0.1338  1.2520
H       -2.8742  -1.4573  0.3874
H       -1.5476  0.7448  1.8519
H       -1.3586  -0.8802  2.0090
H       1.5110  -0.7322  -1.8531
H       1.3399  0.8996  -1.9771
H       3.5796  0.1510  -1.2645
H       2.8367  1.4439  -0.3552
H       2.8764  -1.4550  0.3900
H       3.6163  -0.1310  1.2544
H       1.3585  -0.8813  2.0075
H       1.5432  0.7456  1.8535
H       -1.5129  -0.7309  -1.8516
