27

Co      0.0370  -0.0031  0.0194
Cl      -0.0030  -2.3080  -0.2196
Cl      -0.0034  2.3101  0.2177
N       -1.4913  0.1472  -1.3694
N       -1.4585  -0.1493  1.3509
N       1.4577  0.1419  -1.3471
N       1.4249  -0.1437  1.3287
C       -2.7747  0.4108  -0.6488
C       -2.7504  -0.3998  0.6304
C       2.7470  0.4097  -0.6493
C       2.7226  -0.3984  0.6309
H       -1.3215  0.8829  -2.0243
H       -2.8283  1.4665  -0.4455
H       -3.6232  0.1347  -1.2551
H       -3.5864  -0.1520  1.2655
H       -2.7901  -1.4535  0.4107
H       -1.5178  0.7037  1.8751
H       -1.3036  -0.9018  1.9932
H       1.5064  -0.7192  -1.8566
H       1.2611  0.8813  -1.9911
H       3.5841  0.1317  -1.2666
H       2.8026  1.4655  -0.4475
H       2.7645  -1.4522  0.4127
H       3.5472  -0.1485  1.2770
H       1.2429  -0.8998  1.9601
H       1.4732  0.7060  1.8569
H       -1.5507  -0.7184  -1.8748
