27

Co      0.0000  0.0244  0.0017
Cl      0.0002  -2.3063  -0.2176
Cl      -0.0001  2.2727  0.2143
N       -1.4543  0.1410  -1.3540
N       -1.4543  -0.1462  1.3556
N       1.4543  0.1410  -1.3539
N       1.4543  -0.1457  1.3556
C       -2.7847  0.4154  -0.6484
C       -2.7849  -0.4147  0.6467
C       2.7847  0.4154  -0.6486
C       2.7849  -0.4143  0.6470
H       -1.3519  0.8765  -2.0278
H       -2.8218  1.4663  -0.4267
H       -3.5599  0.1856  -1.3720
H       -3.5598  -0.1879  1.3705
H       -2.8225  -1.4670  0.4217
H       -1.5561  0.6851  1.9118
H       -1.3338  -0.9107  1.9920
H       1.5429  -0.7177  -1.8673
H       1.3521  0.8762  -2.0281
H       3.5598  0.1852  -1.3722
H       2.8219  1.4677  -0.4273
H       2.8227  -1.4666  0.4223
H       3.5598  -0.1870  1.3706
H       1.3337  -0.9099  1.9924
H       1.5559  0.6858  1.9114
H       -1.5429  -0.7174  -1.8677
