27

Co      0.0125  0.0000  0.0000
Cl      0.0002  -2.2840  -0.2122
Cl      -0.0001  2.2840  0.2123
N       -1.4311  0.1640  -1.3463
N       -1.4311  -0.1641  1.3462
N       1.4106  0.1552  -1.2961
N       1.4106  -0.1549  1.2961
C       -2.7977  0.3828  -0.6637
C       -2.7979  -0.3821  0.6637
C       2.7978  0.3851  -0.6593
C       2.7979  -0.3840  0.6594
H       -1.4116  0.9291  -2.0136
H       -2.7791  1.4423  -0.4670
H       -3.6244  0.1740  -1.3285
H       -3.6221  -0.1729  1.3309
H       -2.7798  -1.4430  0.4670
H       -1.5360  0.6629  1.9136
H       -1.4121  -0.9296  2.0132
H       1.5108  -0.6749  -1.8507
H       1.3709  0.9110  -1.9725
H       3.6016  0.1778  -1.3514
H       2.7842  1.4479  -0.4589
H       2.7850  -1.4468  0.4590
H       3.6016  -0.1762  1.3515
H       1.3710  -0.9111  1.9721
H       1.5103  0.6750  1.8511
H       -1.5385  -0.6632  -1.9133
