27

Co      -0.0370  -0.0244  -0.0017
Cl      0.0035  -2.2549  -0.2153
Cl      0.0031  2.2886  0.2188
N       -1.5190  0.1334  -1.3415
N       -1.4797  -0.1284  1.3029
N       1.5133  0.1403  -1.3269
N       1.5526  -0.1350  1.3621
C       -2.7559  0.4261  -0.6241
C       -2.7316  -0.4180  0.6160
C       2.7592  0.4197  -0.6141
C       2.7839  -0.4259  0.6257
H       -1.2915  0.8673  -1.9880
H       -2.8568  1.4803  -0.4207
H       -3.5941  0.1120  -1.2257
H       -3.5499  -0.1124  1.2472
H       -2.8329  -1.4708  0.4085
H       -1.5880  0.7368  1.7978
H       -1.2614  -0.8440  1.9713
H       1.6442  -0.7039  -1.8606
H       1.3032  0.8800  -1.9683
H       3.5890  0.1172  -1.2342
H       2.8601  1.4707  -0.4046
H       2.8855  -1.4769  0.4269
H       3.6332  -0.1074  1.2164
H       1.3710  -0.8365  2.0548
H       1.6793  0.7433  1.8393
H       -1.6509  -0.7125  -1.8634
