27

Co      0.0370  0.0000  0.0000
Cl      -0.0030  -2.2833  -0.2177
Cl      -0.0034  2.2833  0.2178
N       -1.4388  0.1477  -1.3307
N       -1.4388  -0.1478  1.3306
N       1.4053  0.1424  -1.3083
N       1.4052  -0.1421  1.3084
C       -2.7565  0.3882  -0.6441
C       -2.7567  -0.3875  0.6441
C       2.7288  0.3871  -0.6446
C       2.7289  -0.3860  0.6446
H       -1.3564  0.8808  -2.0201
H       -2.7129  1.4497  -0.4331
H       -3.6546  0.1874  -1.2144
H       -3.6523  -0.1863  1.2168
H       -2.7135  -1.4489  0.4331
H       -1.5190  0.7099  1.8461
H       -1.3568  -0.8814  2.0197
H       1.4772  -0.7121  -1.8276
H       1.2960  0.8793  -1.9869
H       3.6154  0.1843  -1.2259
H       2.6871  1.4487  -0.4351
H       2.6880  -1.4476  0.4351
H       3.6154  -0.1828  1.2260
H       1.2961  -0.8794  1.9866
H       1.4767  0.7121  1.8280
H       -1.5215  -0.7102  -1.8458
