27

Co      0.0125  0.0213  0.0211
Cl      0.0002  -2.3027  -0.2204
Cl      -0.0001  2.2711  0.2151
N       -1.4461  0.1560  -1.3745
N       -1.4526  -0.1632  1.3945
N       1.4649  0.1491  -1.3611
N       1.3928  -0.1559  1.3076
C       -2.7293  0.4083  -0.6445
C       -2.7295  -0.4048  0.6343
C       2.7539  0.4179  -0.6499
C       2.7050  -0.3992  0.6201
H       -1.3838  0.8465  -2.1065
H       -2.8061  1.4616  -0.4379
H       -3.5228  0.1321  -1.3226
H       -3.5302  -0.1478  1.3117
H       -2.7924  -1.4560  0.4153
H       -1.5576  0.7043  1.8912
H       -1.3964  -0.8893  2.0915
H       1.5475  -0.7616  -1.7864
H       1.3921  0.8205  -2.1128
H       3.5442  0.1313  -1.3259
H       2.8375  1.4713  -0.4489
H       2.7750  -1.4505  0.3919
H       3.4632  -0.1564  1.3542
H       1.3040  -0.8824  1.9949
H       1.4787  0.7091  1.8084
H       -1.5280  -0.7436  -1.8250
