27

Co      0.0000  0.0000  0.0000
Cl      0.0002  -2.2939  -0.2178
Cl      -0.0001  2.2940  0.2179
N       -1.5146  0.1392  -1.3359
N       -1.5146  -0.1393  1.3358
N       1.5146  0.1410  -1.3358
N       1.5145  -0.1407  1.3358
C       -2.7994  0.4199  -0.6352
C       -2.7996  -0.4191  0.6352
C       2.7994  0.4198  -0.6354
C       2.7996  -0.4187  0.6355
H       -1.2608  0.8598  -1.9904
H       -2.8208  1.4751  -0.4110
H       -3.6880  0.1670  -1.1998
H       -3.6880  -0.1659  1.1999
H       -2.8214  -1.4744  0.4110
H       -1.5378  0.7431  1.8097
H       -1.2612  -0.8603  1.9900
H       1.5361  -0.7437  -1.8109
H       1.2610  0.8613  -1.9888
H       3.6880  0.1648  -1.1999
H       2.8227  1.4733  -0.4135
H       2.8236  -1.4722  0.4135
H       3.6879  -0.1632  1.2000
H       1.2612  -0.8614  1.9885
H       1.5356  0.7438  1.8113
H       -1.5380  -0.7435  -1.8094
