27

Co      0.0000  0.0000  0.0000
Cl      0.0002  -2.3090  -0.2186
Cl      -0.0001  2.3091  0.2187
N       -1.4440  0.1442  -1.3575
N       -1.4440  -0.1443  1.3574
N       1.4441  0.1441  -1.3575
N       1.4440  -0.1438  1.3575
C       -2.7669  0.4178  -0.6524
C       -2.7671  -0.4171  0.6524
C       2.7669  0.4178  -0.6526
C       2.7671  -0.4167  0.6526
H       -1.2539  0.8858  -2.0007
H       -2.7931  1.4711  -0.4330
H       -3.5923  0.1778  -1.3039
H       -3.5923  -0.1767  1.3041
H       -2.7938  -1.4718  0.4330
H       -1.4979  0.7159  1.8698
H       -1.2543  -0.8864  2.0002
H       1.4981  -0.7165  -1.8691
H       1.2541  0.8855  -2.0009
H       3.5923  0.1774  -1.3041
H       2.7933  1.4726  -0.4336
H       2.7941  -1.4715  0.4337
H       3.5922  -0.1759  1.3042
H       1.2542  -0.8856  2.0006
H       1.4976  0.7166  1.8695
H       -1.4982  -0.7162  -1.8695
