27

Co      0.0000  0.0000  0.0000
Cl      0.0002  -2.2930  -0.2159
Cl      -0.0001  2.2931  0.2160
N       -1.5071  0.1489  -1.3734
N       -1.5071  -0.1490  1.3733
N       1.5072  0.1488  -1.3734
N       1.5071  -0.1486  1.3734
C       -2.7434  0.3936  -0.6204
C       -2.7436  -0.3929  0.6204
C       2.7435  0.3935  -0.6206
C       2.7436  -0.3924  0.6206
H       -1.3135  0.9184  -1.9811
H       -2.8434  1.4429  -0.3984
H       -3.5598  0.1049  -1.2617
H       -3.5621  -0.1038  1.2596
H       -2.8441  -1.4408  0.3985
H       -1.4843  0.7157  1.8842
H       -1.3139  -0.9189  1.9806
H       1.4823  -0.7163  -1.8835
H       1.3137  0.9181  -1.9814
H       3.5598  0.1045  -1.2619
H       2.8435  1.4415  -0.3991
H       2.8444  -1.4404  0.3991
H       3.5597  -0.1029  1.2620
H       1.3138  -0.9181  1.9810
H       1.4817  0.7164  1.8839
H       -1.4823  -0.7160  -1.8839
