27

Co      0.0000  -0.0244  -0.0017
Cl      0.0002  -2.2984  -0.2151
Cl      -0.0001  2.3321  0.2185
N       -1.5191  0.1540  -1.3683
N       -1.5191  -0.1491  1.3665
N       1.5191  0.1539  -1.3682
N       1.5191  -0.1486  1.3666
C       -2.7605  0.3927  -0.6196
C       -2.7607  -0.3920  0.6213
C       2.7606  0.3927  -0.6197
C       2.7607  -0.3916  0.6215
H       -1.3162  0.9386  -1.9566
H       -2.8665  1.4420  -0.3985
H       -3.5726  0.0997  -1.2660
H       -3.5749  -0.0953  1.2656
H       -2.8671  -1.4399  0.4035
H       -1.4869  0.7282  1.8580
H       -1.3351  -0.9055  1.9915
H       1.4984  -0.6969  -1.9011
H       1.3164  0.9383  -1.9568
H       3.5726  0.0993  -1.2661
H       2.8666  1.4406  -0.3991
H       2.8674  -1.4395  0.4042
H       3.5725  -0.0944  1.2680
H       1.3350  -0.9047  1.9919
H       1.4844  0.7290  1.8577
H       -1.4984  -0.6966  -1.9015
