27

Co      0.0000  0.0000  0.0000
Cl      0.0002  -2.2717  -0.2170
Cl      -0.0001  2.2718  0.2171
N       -1.5313  0.1343  -1.3670
N       -1.4920  -0.1345  1.3301
N       1.4920  0.1361  -1.3302
N       1.5313  -0.1359  1.3670
C       -2.7923  0.4267  -0.6311
C       -2.7680  -0.4186  0.6213
C       2.7678  0.4193  -0.6214
C       2.7925  -0.4255  0.6313
H       -1.2463  0.8605  -2.0027
H       -2.8416  1.4751  -0.3876
H       -3.6521  0.1691  -1.2300
H       -3.6101  -0.1730  1.2476
H       -2.8177  -1.4670  0.3704
H       -1.4337  0.7609  1.7917
H       -1.1976  -0.8709  1.9507
H       1.4298  -0.7616  -1.7928
H       1.1974  0.8719  -1.9495
H       3.6079  0.1718  -1.2498
H       2.8191  1.4659  -0.3729
H       2.8445  -1.4722  0.3901
H       3.6520  -0.1653  1.2303
H       1.2466  -0.8621  2.0007
H       1.4784  0.7690  1.8153
H       -1.4808  -0.7687  -1.8134
