27

Co      0.0000  -0.0244  -0.0017
Cl      0.0002  -2.2781  -0.2180
Cl      -0.0001  2.3118  0.2214
N       -1.5075  0.1387  -1.3656
N       -1.5075  -0.1338  1.3638
N       1.5075  0.1405  -1.3656
N       1.5074  -0.1352  1.3639
C       -2.7438  0.4044  -0.6193
C       -2.7440  -0.4037  0.6209
C       2.7439  0.4044  -0.6194
C       2.7440  -0.4033  0.6212
H       -1.3388  0.8906  -2.0063
H       -2.7781  1.4587  -0.3935
H       -3.6144  0.1575  -1.2063
H       -3.6144  -0.1531  1.2081
H       -2.7787  -1.4565  0.3985
H       -1.5701  0.7417  1.8474
H       -1.3578  -0.8574  2.0411
H       1.5819  -0.7103  -1.8923
H       1.3390  0.8921  -2.0046
H       3.6144  0.1553  -1.2064
H       2.7800  1.4554  -0.3960
H       2.7809  -1.4543  0.4010
H       3.6143  -0.1503  1.2083
H       1.3577  -0.8585  2.0396
H       1.5680  0.7424  1.8489
H       -1.5838  -0.7101  -1.8908
