27

Co      -0.0125  0.0000  0.0000
Cl      0.0002  -2.3152  -0.2168
Cl      -0.0001  2.3153  0.2169
N       -1.4857  0.1489  -1.3441
N       -1.4857  -0.1490  1.3440
N       1.5062  0.1557  -1.3941
N       1.5062  -0.1554  1.3941
C       -2.7810  0.4043  -0.6399
C       -2.7813  -0.4036  0.6399
C       2.7811  0.4019  -0.6446
C       2.7813  -0.4008  0.6446
H       -1.3039  0.8991  -1.9815
H       -2.8354  1.4590  -0.4312
H       -3.6135  0.1366  -1.2710
H       -3.6135  -0.1356  1.2712
H       -2.8361  -1.4582  0.4312
H       -1.5349  0.7041  1.8647
H       -1.3043  -0.8997  1.9810
H       1.5647  -0.6933  -1.9243
H       1.3451  0.9148  -2.0249
H       3.6362  0.1340  -1.2484
H       2.8287  1.4567  -0.4387
H       2.8295  -1.4556  0.4387
H       3.6362  -0.1324  1.2486
H       1.3452  -0.9148  2.0246
H       1.5642  0.6934  1.9247
H       -1.5351  -0.7044  -1.8644
