27

Co      -0.0370  0.0031  -0.0194
Cl      0.0035  -2.2941  -0.2149
Cl      0.0031  2.2921  0.2170
N       -1.4985  0.1498  -1.3715
N       -1.4919  -0.1479  1.3530
N       1.4928  0.1549  -1.3569
N       1.5647  -0.1526  1.4121
C       -2.7295  0.3941  -0.6212
C       -2.7297  -0.3962  0.6297
C       2.7328  0.3877  -0.6111
C       2.7821  -0.4041  0.6394
H       -1.2258  0.9172  -1.9627
H       -2.8161  1.4448  -0.4000
H       -3.5925  0.0982  -1.1972
H       -3.5873  -0.0836  1.2045
H       -2.8310  -1.4476  0.4176
H       -1.4176  0.7321  1.8418
H       -1.1955  -0.9092  1.9414
H       1.4271  -0.7178  -1.8590
H       1.2375  0.9279  -1.9448
H       3.5874  0.1053  -1.2057
H       2.8175  1.4370  -0.3821
H       2.8817  -1.4556  0.4341
H       3.6683  -0.0804  1.1760
H       1.3051  -0.8998  2.0267
H       1.5084  0.7386  1.8814
H       -1.4319  -0.7255  -1.8636
