27

Co      0.0000  0.0000  0.0000
Cl      0.0002  -2.2868  -0.2177
Cl      -0.0001  2.2869  0.2178
N       -1.4439  0.1585  -1.3595
N       -1.4439  -0.1587  1.3594
N       1.4440  0.1585  -1.3594
N       1.4439  -0.1582  1.3594
C       -2.7293  0.4104  -0.6420
C       -2.7295  -0.4097  0.6420
C       2.7293  0.4104  -0.6421
C       2.7295  -0.4093  0.6422
H       -1.2967  0.8548  -2.0655
H       -2.7950  1.4652  -0.4328
H       -3.5636  0.1295  -1.2630
H       -3.5636  -0.1284  1.2631
H       -2.7957  -1.4644  0.4329
H       -1.4915  0.7416  1.8057
H       -1.2971  -0.8554  2.0650
H       1.4918  -0.7422  -1.8050
H       1.2968  0.8545  -2.0635
H       3.5636  0.1314  -1.2631
H       2.7952  1.4652  -0.4335
H       2.7960  -1.4641  0.4335
H       3.5635  -0.1298  1.2633
H       1.2948  -0.8546  2.0632
H       1.4913  0.7423  1.8054
H       -1.4918  -0.7420  -1.8054
