27

Co      -0.0370  0.0031  -0.0194
Cl      0.0035  -2.2763  -0.2160
Cl      0.0031  2.2744  0.2181
N       -1.4754  0.1350  -1.3502
N       -1.5081  -0.1331  1.3685
N       1.5090  0.1420  -1.3724
N       1.5416  -0.1397  1.3909
C       -2.7538  0.4115  -0.6238
C       -2.7785  -0.4210  0.6422
C       2.7816  0.4124  -0.6235
C       2.8063  -0.4216  0.6420
H       -1.2965  0.8794  -1.9977
H       -2.7643  1.4633  -0.3844
H       -3.5995  0.1963  -1.2577
H       -3.6363  -0.1768  1.2476
H       -2.8038  -1.4748  0.4192
H       -1.5721  0.7352  1.8622
H       -1.3153  -0.8615  2.0279
H       1.5821  -0.7209  -1.8812
H       1.3572  0.8822  -2.0295
H       3.6386  0.1966  -1.2465
H       2.7921  1.4624  -0.3855
H       2.8318  -1.4736  0.4203
H       3.6754  -0.1767  1.2365
H       1.3758  -0.8638  2.0598
H       1.6143  0.7343  1.8816
H       -1.5396  -0.7212  -1.8619
