27

Co      -0.0245  0.0031  -0.0194
Cl      0.0035  -2.2763  -0.2160
Cl      0.0031  2.2744  0.2181
N       -1.5398  0.1223  -1.3876
N       -1.5332  -0.1204  1.3691
N       1.5136  0.1225  -1.3229
N       1.5855  -0.1202  1.3781
C       -2.7412  0.4189  -0.6140
C       -2.7414  -0.4210  0.6226
C       2.7445  0.4148  -0.5994
C       2.7937  -0.4312  0.6277
H       -1.2000  0.9146  -1.9334
H       -2.8279  1.4678  -0.3853
H       -3.6100  0.1263  -1.1847
H       -3.6049  -0.1117  1.1920
H       -2.8428  -1.4705  0.4029
H       -1.5437  0.7188  1.9174
H       -1.1698  -0.9066  1.9121
H       1.5218  -0.7159  -1.8760
H       1.1707  0.9113  -1.8727
H       3.5821  0.1316  -1.2159
H       2.8380  1.4604  -0.3624
H       2.9022  -1.4789  0.4144
H       3.6631  -0.1067  1.1862
H       1.2406  -0.8832  1.9545
H       1.6031  0.7366  1.8985
H       -1.5581  -0.7122  -1.9392
