27

Co      0.0000  -0.0031  0.0194
Cl      0.0002  -2.2662  -0.2161
Cl      -0.0001  2.2683  0.2141
N       -1.4306  0.1468  -1.3448
N       -1.4371  -0.1490  1.3631
N       1.4699  0.1467  -1.3816
N       1.3978  -0.1485  1.3264
C       -2.7763  0.4006  -0.6636
C       -2.7766  -0.3970  0.6550
C       2.8010  0.4079  -0.6736
C       2.7520  -0.3892  0.6454
H       -1.3130  0.8825  -2.0191
H       -2.7173  1.4617  -0.4501
H       -3.6652  0.2142  -1.2514
H       -3.6703  -0.2266  1.2444
H       -2.7036  -1.4575  0.4325
H       -1.5193  0.7015  1.8860
H       -1.3441  -0.8917  2.0395
H       1.5545  -0.7155  -1.8853
H       1.3622  0.8724  -2.0709
H       3.7093  0.2089  -1.2319
H       2.7419  1.4705  -0.4679
H       2.6794  -1.4497  0.4160
H       3.6283  -0.2307  1.2619
H       1.2949  -0.9007  1.9883
H       1.4722  0.6949  1.8636
H       -1.5054  -0.7089  -1.8636
