27

Co      0.0370  0.0213  0.0211
Cl      -0.0030  -2.3194  -0.2175
Cl      -0.0034  2.2878  0.2122
N       -1.4284  0.1581  -1.3250
N       -1.4349  -0.1653  1.3450
N       1.4341  0.1510  -1.3395
N       1.3620  -0.1578  1.2859
C       -2.7873  0.4056  -0.6734
C       -2.7875  -0.4020  0.6631
C       2.7841  0.4119  -0.6837
C       2.7352  -0.3932  0.6539
H       -1.2834  0.8823  -2.0022
H       -2.8237  1.4686  -0.5025
H       -3.6333  0.1219  -1.2811
H       -3.6384  -0.1376  1.2724
H       -2.8100  -1.4643  0.4799
H       -1.5694  0.6566  1.9139
H       -1.2960  -0.9251  1.9872
H       1.5487  -0.7041  -1.8497
H       1.2721  0.8691  -2.0224
H       3.6383  0.1158  -1.2729
H       2.8206  1.4782  -0.5198
H       2.7580  -1.4575  0.4628
H       3.5573  -0.1409  1.3013
H       1.1862  -0.9310  1.9045
H       1.4799  0.6515  1.8718
H       -1.5421  -0.6959  -1.8477
