27

Co      0.0021  0.0134  -0.0001
Cl      -1.0790  1.5887  -1.2006
Cl      1.1450  1.4161  1.3473
C       2.6420  -0.7176  -0.8072
C       2.1119  -1.8934  -0.0912
C       -2.5088  -1.2858  -0.4413
C       -2.4071  -1.1613  1.0610
N       1.5249  0.0779  -1.3440
N       1.0917  -1.4997  0.8474
N       -1.1384  -1.3300  -1.0346
N       -1.5114  -0.0183  1.3680
H       2.9194  -2.4238  0.3875
H       1.6663  -2.5701  -0.8049
H       -2.9981  -0.4184  -0.8457
H       -3.0760  -2.1574  -0.7238
H       1.7786  1.0445  -1.4324
H       1.2607  -0.2288  -2.2591
H       -1.9813  0.8625  1.2725
H       -1.1606  -0.0519  2.3034
H       -1.9834  -2.0509  1.5075
H       -3.3921  -1.0232  1.4848
H       0.5694  -2.3040  1.1359
H       1.4992  -1.0979  1.6707
H       3.2750  -1.0843  -1.6028
H       3.2355  -0.0863  -0.1686
H       -0.7881  -2.2675  -1.0277
H       -1.1912  -1.0309  -1.9897
