27

Co      -0.0229  -0.0070  -0.0175
Cl      -1.0898  1.6221  -1.2163
Cl      1.1907  1.4857  1.4018
C       2.6718  -0.7124  -0.7991
C       2.1417  -1.9556  -0.1182
C       -2.5412  -1.3226  -0.4478
C       -2.4250  -1.1564  1.0564
N       1.4913  0.0424  -1.3114
N       1.0953  -1.4946  0.8479
N       -1.1577  -1.3335  -1.0304
N       -1.4663  -0.0560  1.3293
H       2.9250  -2.5005  0.3912
H       1.6830  -2.6249  -0.8305
H       -3.0645  -0.4868  -0.8821
H       -3.0692  -2.2268  -0.7060
H       1.7103  1.0197  -1.4042
H       1.2289  -0.2710  -2.2245
H       -1.9107  0.8433  1.2628
H       -1.0897  -0.1074  2.2580
H       -2.0445  -2.0574  1.5143
H       -3.3878  -0.9533  1.4939
H       0.5970  -2.2778  1.2234
H       1.5405  -1.0310  1.6206
H       3.3600  -0.9512  -1.5941
H       3.1807  -0.0790  -0.0905
H       -0.7907  -2.2669  -1.0217
H       -1.2110  -1.0389  -1.9861
