27

Co      0.0253  0.0070  0.0286
Cl      -1.0913  1.6144  -1.2212
Cl      1.1279  1.3973  1.3203
C       2.6250  -0.7200  -0.8262
C       2.1288  -1.9016  -0.0700
C       -2.5147  -1.3083  -0.4558
C       -2.3898  -1.1351  1.0524
N       1.4716  0.0866  -1.2523
N       1.0671  -1.4727  0.8096
N       -1.1470  -1.3489  -1.0613
N       -1.4512  -0.0206  1.3438
H       2.9793  -2.3822  0.3923
H       1.6785  -2.6161  -0.7436
H       -2.9832  -0.4595  -0.9194
H       -3.1279  -2.1874  -0.6332
H       1.7625  1.0428  -1.3832
H       1.2529  -0.2276  -2.1807
H       -1.9377  0.8562  1.2732
H       -1.1546  -0.0716  2.2998
H       -1.9783  -2.0108  1.5373
H       -3.3798  -0.9793  1.4573
H       0.5472  -2.2790  1.1013
H       1.5364  -1.1524  1.6452
H       3.2394  -1.1291  -1.6222
H       3.2384  -0.0644  -0.2239
H       -0.8726  -2.3127  -1.1068
H       -1.2395  -1.0451  -2.0149
