27

Co      -0.0231  -0.0100  -0.0255
Cl      -1.0943  1.6170  -1.2127
Cl      1.1937  1.4880  1.4024
C       2.6718  -0.7206  -0.7991
C       2.1496  -1.9523  -0.1151
C       -2.5681  -1.3163  -0.4343
C       -2.4349  -1.1707  1.0544
N       1.5224  0.0645  -1.3376
N       1.1306  -1.5289  0.8941
N       -1.1799  -1.3019  -1.0066
N       -1.4865  -0.0596  1.3008
H       2.9104  -2.4945  0.4290
H       1.7190  -2.6326  -0.8373
H       -3.1475  -0.4920  -0.8225
H       -3.0191  -2.2423  -0.7688
H       1.7187  1.0536  -1.3319
H       1.1867  -0.1746  -2.2491
H       -1.9019  0.8487  1.1874
H       -1.0720  -0.0744  2.2145
H       -2.0522  -2.0877  1.4779
H       -3.3721  -0.9472  1.5412
H       0.6218  -2.3118  1.2507
H       1.5070  -0.9932  1.6657
H       3.3066  -0.9297  -1.6494
H       3.2356  -0.1308  -0.0959
H       -0.7397  -2.2074  -0.9823
H       -1.1981  -0.9750  -1.9527
