27

Co      0.0115  -0.0037  -0.0068
Cl      -1.0741  1.5944  -1.2086
Cl      1.1398  1.4129  1.3458
C       2.5921  -0.6983  -0.8141
C       2.0858  -1.8797  -0.1006
C       -2.4639  -1.2945  -0.4342
C       -2.4023  -1.1137  1.0636
N       1.4801  0.0668  -1.2898
N       1.0630  -1.4772  0.8552
N       -1.1110  -1.3232  -1.0780
N       -1.4731  -0.0375  1.3876
H       2.9714  -2.3423  0.3258
H       1.6179  -2.5995  -0.7523
H       -2.9701  -0.4833  -0.9296
H       -3.0449  -2.2023  -0.5730
H       1.7607  1.0244  -1.4201
H       1.2853  -0.2598  -2.2225
H       -1.9411  0.8505  1.3305
H       -1.1679  -0.1117  2.3395
H       -2.0238  -1.9999  1.5527
H       -3.4174  -0.9634  1.4138
H       0.5970  -2.3002  1.1897
H       1.5597  -1.1221  1.6563
H       3.3144  -1.0571  -1.5403
H       3.1035  -0.0482  -0.1288
H       -0.8428  -2.2897  -1.1685
H       -1.2452  -0.9910  -2.0199
