27

Co      0.0006  0.0190  0.0055
Cl      -1.0933  1.6172  -1.2236
Cl      1.1418  1.4130  1.3408
C       2.6817  -0.7177  -0.8290
C       2.1441  -1.9369  -0.0982
C       -2.5092  -1.3020  -0.4398
C       -2.4329  -1.1605  1.0704
N       1.5256  0.0733  -1.3352
N       1.0801  -1.5097  0.8639
N       -1.1256  -1.3205  -1.0247
N       -1.5079  -0.0384  1.3864
H       2.9353  -2.4591  0.4131
H       1.6962  -2.6260  -0.7981
H       -3.0141  -0.4525  -0.8647
H       -3.0483  -2.1923  -0.7188
H       1.7619  1.0443  -1.4191
H       1.2454  -0.2259  -2.2492
H       -1.9653  0.8507  1.3059
H       -1.1538  -0.0892  2.3226
H       -2.0419  -2.0580  1.5293
H       -3.4180  -0.9912  1.4787
H       0.5475  -2.3069  1.1570
H       1.4987  -1.1128  1.6849
H       3.3341  -1.0180  -1.6339
H       3.2413  -0.0889  -0.1589
H       -0.7639  -2.2536  -1.0340
H       -1.1800  -1.0047  -1.9735
