27

Co      0.0332  -0.0007  -0.0022
Cl      -1.0868  1.6123  -1.2124
Cl      1.1436  1.4239  1.3522
C       2.6350  -0.6872  -0.8234
C       2.1039  -1.9259  -0.0915
C       -2.4979  -1.2918  -0.4512
C       -2.4085  -1.1538  1.0729
N       1.4613  0.0809  -1.3136
N       1.0335  -1.4806  0.8538
N       -1.1180  -1.3603  -1.0513
N       -1.4881  -0.0246  1.3750
H       2.9370  -2.4495  0.3543
H       1.6136  -2.6011  -0.7777
H       -2.9273  -0.4082  -0.9003
H       -3.1367  -2.1415  -0.6696
H       1.7178  1.0433  -1.4725
H       1.2577  -0.2753  -2.2348
H       -1.9826  0.8459  1.2724
H       -1.1971  -0.0476  2.3361
H       -1.9875  -2.0303  1.5457
H       -3.4096  -1.0250  1.4631
H       0.5077  -2.2759  1.1642
H       1.5230  -1.1555  1.6736
H       3.3469  -1.0160  -1.5681
H       3.1336  -0.0133  -0.1454
H       -0.8547  -2.3307  -1.0808
H       -1.2080  -1.0760  -2.0115
