27

Co      0.0363  0.0310  0.0123
Cl      -1.0958  1.6159  -1.2259
Cl      1.1301  1.3919  1.3267
C       2.6244  -0.7197  -0.8112
C       2.1187  -1.9030  -0.1089
C       -2.5208  -1.3126  -0.4322
C       -2.4371  -1.1439  1.0579
N       1.4980  0.0426  -1.2633
N       1.1001  -1.4667  0.8354
N       -1.1469  -1.3120  -1.0302
N       -1.4902  -0.0702  1.3517
H       2.9952  -2.3695  0.3299
H       1.6522  -2.6245  -0.7613
H       -3.0372  -0.5067  -0.9269
H       -3.0733  -2.2322  -0.5884
H       1.7948  0.9946  -1.4422
H       1.2753  -0.3137  -2.1769
H       -1.9684  0.8119  1.2759
H       -1.2053  -0.1265  2.3133
H       -2.0537  -2.0382  1.5324
H       -3.4350  -0.9810  1.4427
H       0.6140  -2.2775  1.1735
H       1.6091  -1.1227  1.6351
H       3.3417  -1.0604  -1.5499
H       3.1407  -0.0770  -0.1199
H       -0.8658  -2.2742  -1.0860
H       -1.2610  -1.0100  -1.9830
