27

Co      -0.0280  -0.0262  -0.0283
Cl      -1.0964  1.6230  -1.2130
Cl      1.1993  1.5038  1.4101
C       2.6841  -0.7283  -0.8156
C       2.1573  -1.9463  -0.1103
C       -2.5555  -1.2974  -0.4290
C       -2.4360  -1.1826  1.0629
N       1.5368  0.0676  -1.3461
N       1.1004  -1.5316  0.8671
N       -1.1616  -1.3035  -0.9859
N       -1.5083  -0.0540  1.3086
H       2.9117  -2.4609  0.4714
H       1.7588  -2.6521  -0.8269
H       -3.1061  -0.4503  -0.8038
H       -3.0243  -2.2044  -0.7944
H       1.7306  1.0599  -1.3081
H       1.2103  -0.1431  -2.2692
H       -1.9313  0.8452  1.1604
H       -1.1079  -0.0375  2.2293
H       -2.0358  -2.0958  1.4784
H       -3.3778  -0.9819  1.5475
H       0.5815  -2.3215  1.1919
H       1.4510  -1.0133  1.6622
H       3.3001  -0.9595  -1.6717
H       3.2679  -0.1363  -0.1302
H       -0.7259  -2.2119  -0.9435
H       -1.1686  -0.9941  -1.9390
