27

Co      0.0143  0.0284  -0.0024
Cl      -1.0643  1.5743  -1.1988
Cl      1.1300  1.3944  1.3317
C       2.5935  -0.7042  -0.8089
C       2.0955  -1.8898  -0.1028
C       -2.4840  -1.3020  -0.4388
C       -2.4046  -1.1191  1.0530
N       1.4702  0.0548  -1.2684
N       1.0662  -1.4653  0.8328
N       -1.1197  -1.3105  -1.0500
N       -1.4567  -0.0531  1.3609
H       2.9768  -2.3408  0.3429
H       1.6421  -2.6224  -0.7519
H       -3.0029  -0.5026  -0.9412
H       -3.0420  -2.2228  -0.5770
H       1.7612  1.0077  -1.4343
H       1.2563  -0.2948  -2.1880
H       -1.9289  0.8354  1.3229
H       -1.1456  -0.1374  2.3087
H       -2.0276  -2.0120  1.5333
H       -3.4059  -0.9543  1.4284
H       0.5879  -2.2791  1.1713
H       1.5660  -1.1145  1.6340
H       3.3134  -1.0444  -1.5446
H       3.1032  -0.0569  -0.1182
H       -0.8344  -2.2696  -1.0972
H       -1.2390  -1.0159  -2.0048
