27

Co      -0.0281  -0.0175  -0.0142
Cl      -1.0921  1.6137  -1.2187
Cl      1.1729  1.4611  1.3751
C       2.7294  -0.7154  -0.8358
C       2.1781  -1.9930  -0.0843
C       -2.5561  -1.3288  -0.4483
C       -2.4592  -1.1797  1.0803
N       1.5037  0.0918  -1.3287
N       1.0736  -1.4907  0.8587
N       -1.1344  -1.2274  -0.9642
N       -1.4704  -0.0549  1.3088
H       2.9185  -2.5641  0.4620
H       1.7100  -2.6551  -0.8025
H       -3.0967  -0.4897  -0.8576
H       -3.0169  -2.2464  -0.7938
H       1.7093  1.0793  -1.3342
H       1.2666  -0.1497  -2.2727
H       -1.9211  0.8391  1.2124
H       -1.0912  -0.0648  2.2384
H       -2.0853  -2.0730  1.5633
H       -3.4121  -0.9370  1.5276
H       0.5541  -2.2577  1.2452
H       1.5087  -1.0100  1.6307
H       3.3542  -0.9746  -1.6785
H       3.2909  -0.0743  -0.1762
H       -0.7121  -2.1400  -0.9653
H       -1.1628  -0.9075  -1.9134
