27

Co      0.0071  0.0354  0.0010
Cl      -1.0811  1.5925  -1.2100
Cl      1.1464  1.4128  1.3479
C       2.6280  -0.7186  -0.8041
C       2.1090  -1.8910  -0.1176
C       -2.5201  -1.3122  -0.4304
C       -2.4264  -1.1376  1.0486
N       1.5328  0.0483  -1.3235
N       1.1165  -1.5026  0.8764
N       -1.1606  -1.3262  -1.0526
N       -1.4949  -0.0601  1.3653
H       2.9516  -2.3814  0.3484
H       1.6613  -2.5983  -0.7966
H       -3.0827  -0.5175  -0.8922
H       -3.0288  -2.2445  -0.6267
H       1.7951  1.0103  -1.4439
H       1.2429  -0.2786  -2.2242
H       -1.9380  0.8398  1.3112
H       -1.1401  -0.1430  2.2975
H       -2.0515  -2.0470  1.4972
H       -3.4095  -0.9618  1.4588
H       0.6240  -2.3183  1.1850
H       1.5542  -1.0956  1.6802
H       3.3245  -1.0285  -1.5706
H       3.1652  -0.1064  -0.1027
H       -0.8130  -2.2634  -1.0907
H       -1.2463  -0.9952  -1.9948
