27

Co      0.0290  0.0350  0.0168
Cl      -1.0869  1.6022  -1.2142
Cl      1.1450  1.4181  1.3454
C       2.6751  -0.7137  -0.8262
C       2.1336  -1.9306  -0.1024
C       -2.5381  -1.3198  -0.4493
C       -2.4266  -1.1557  1.0586
N       1.5050  0.0618  -1.3136
N       1.0640  -1.4736  0.8382
N       -1.1690  -1.3813  -1.0714
N       -1.4994  -0.0361  1.3820
H       2.9091  -2.4556  0.4295
H       1.6876  -2.6200  -0.8039
H       -3.0354  -0.4678  -0.8770
H       -3.1129  -2.2014  -0.6885
H       1.7423  1.0275  -1.4634
H       1.1825  -0.2872  -2.1992
H       -1.9548  0.8540  1.2996
H       -1.1619  -0.0938  2.3237
H       -2.0340  -2.0531  1.5139
H       -3.4059  -0.9864  1.4785
H       0.4887  -2.2534  1.1041
H       1.4805  -1.1091  1.6751
H       3.3237  -0.9992  -1.6387
H       3.2341  -0.0837  -0.1534
H       -0.8392  -2.3256  -1.1080
H       -1.2359  -1.0461  -2.0140
