27

Co      -0.0071  -0.0313  -0.0010
Cl      -1.0999  1.6411  -1.2308
Cl      1.1750  1.4783  1.3815
C       2.7121  -0.7095  -0.8378
C       2.1703  -1.9873  -0.0847
C       -2.5418  -1.3238  -0.4557
C       -2.4377  -1.1727  1.0751
N       1.4696  0.0808  -1.3055
N       1.0241  -1.4817  0.8157
N       -1.1267  -1.3035  -0.9861
N       -1.4523  -0.0500  1.3202
H       2.8984  -2.5307  0.5059
H       1.7380  -2.6716  -0.8038
H       -3.0334  -0.4574  -0.8647
H       -3.0657  -2.2101  -0.7885
H       1.6631  1.0674  -1.3478
H       1.1990  -0.1865  -2.2323
H       -1.8957  0.8446  1.2065
H       -1.0946  -0.0543  2.2586
H       -2.0674  -2.0664  1.5564
H       -3.3918  -0.9345  1.5166
H       0.4583  -2.2433  1.1396
H       1.4327  -1.0566  1.6304
H       3.3228  -0.9576  -1.6923
H       3.2781  -0.0635  -0.1854
H       -0.7435  -2.2297  -0.9784
H       -1.1492  -0.9960  -1.9400
