27

Co      0.0012  0.0055  -0.0040
Cl      -1.0851  1.6162  -1.2183
Cl      1.1554  1.4405  1.3645
C       2.6509  -0.6989  -0.8142
C       2.1173  -1.9310  -0.1025
C       -2.5006  -1.3076  -0.4462
C       -2.4182  -1.1479  1.0639
N       1.4929  0.0690  -1.3454
N       1.0565  -1.5138  0.8673
N       -1.1208  -1.3450  -1.0377
N       -1.4750  -0.0430  1.3773
H       2.9104  -2.4614  0.3983
H       1.6663  -2.6087  -0.8118
H       -3.0004  -0.4591  -0.8797
H       -3.0522  -2.1957  -0.7088
H       1.7156  1.0413  -1.4494
H       1.2156  -0.2546  -2.2528
H       -1.9194  0.8549  1.3132
H       -1.1102  -0.1079  2.3082
H       -2.0453  -2.0482  1.5296
H       -3.3994  -0.9589  1.4694
H       0.5226  -2.3098  1.1570
H       1.4750  -1.1210  1.6901
H       3.3305  -0.9807  -1.6018
H       3.1769  -0.0605  -0.1269
H       -0.7681  -2.2810  -1.0415
H       -1.1758  -1.0373  -1.9890
