27

Co      0.0032  0.0134  0.0013
Cl      -1.0708  1.5907  -1.2035
Cl      1.1400  1.4181  1.3426
C       2.6256  -0.6936  -0.8313
C       2.1203  -1.9323  -0.0787
C       -2.5052  -1.3083  -0.4606
C       -2.3897  -1.1323  1.0540
N       1.4511  0.0939  -1.2925
N       1.0345  -1.5035  0.8572
N       -1.1196  -1.3253  -1.0342
N       -1.4239  -0.0355  1.3335
H       2.9701  -2.4211  0.3784
H       1.6544  -2.6398  -0.7495
H       -2.9842  -0.4703  -0.9395
H       -3.0890  -2.2007  -0.6470
H       1.7183  1.0566  -1.4135
H       1.2507  -0.2237  -2.2263
H       -1.9060  0.8484  1.2970
H       -1.0940  -0.1034  2.2757
H       -1.9903  -2.0160  1.5324
H       -3.3701  -0.9576  1.4705
H       0.5312  -2.3109  1.1725
H       1.5189  -1.1681  1.6767
H       3.3089  -1.0304  -1.5984
H       3.1546  -0.0261  -0.1722
H       -0.8200  -2.2799  -1.0341
H       -1.1974  -1.0613  -2.0009
