27

Co      0.0364  0.0150  0.0021
Cl      -1.0865  1.6046  -1.2169
Cl      1.1463  1.4277  1.3480
C       2.6392  -0.7074  -0.8433
C       2.1367  -1.9384  -0.0726
C       -2.5285  -1.3297  -0.4490
C       -2.4320  -1.1429  1.0704
N       1.4673  0.0994  -1.2824
N       1.0485  -1.4984  0.8563
N       -1.1575  -1.3479  -1.0765
N       -1.4747  -0.0387  1.3702
H       2.9884  -2.4155  0.3935
H       1.6716  -2.6552  -0.7330
H       -3.0128  -0.4915  -0.9228
H       -3.1249  -2.2194  -0.6250
H       1.7487  1.0587  -1.4068
H       1.2477  -0.2121  -2.2120
H       -1.9532  0.8431  1.3098
H       -1.1686  -0.1033  2.3243
H       -2.0503  -2.0212  1.5713
H       -3.4300  -0.9650  1.4489
H       0.5156  -2.2988  1.1448
H       1.5246  -1.1811  1.6891
H       3.3019  -1.0544  -1.6235
H       3.1939  -0.0452  -0.1976
H       -0.8783  -2.3111  -1.1596
H       -1.2745  -1.0180  -2.0215
