27

Co      -0.0012  0.0021  0.0022
Cl      -1.1027  1.6277  -1.2243
Cl      1.1710  1.4540  1.3718
C       2.6978  -0.7276  -0.8141
C       2.1602  -1.9541  -0.1135
C       -2.5699  -1.3199  -0.4416
C       -2.4442  -1.1761  1.0581
N       1.5128  0.0430  -1.2904
N       1.1012  -1.4671  0.8265
N       -1.1699  -1.2983  -0.9889
N       -1.4860  -0.0671  1.3013
H       2.9310  -2.4867  0.4252
H       1.7124  -2.6424  -0.8160
H       -3.1020  -0.4867  -0.8669
H       -3.0697  -2.2332  -0.7253
H       1.7408  1.0193  -1.3782
H       1.2332  -0.2567  -2.2020
H       -1.9399  0.8227  1.1822
H       -1.1433  -0.0723  2.2444
H       -2.0480  -2.0789  1.5035
H       -3.3967  -0.9751  1.5213
H       0.5836  -2.2433  1.1933
H       1.5443  -1.0158  1.6068
H       3.3528  -0.9831  -1.6321
H       3.2442  -0.1043  -0.1253
H       -0.7970  -2.2292  -0.9813
H       -1.2095  -0.9983  -1.9441
