27

Co      -0.0149  -0.0037  -0.0262
Cl      -1.0757  1.5811  -1.1936
Cl      1.1740  1.4576  1.3774
C       2.7017  -0.7072  -0.8240
C       2.1687  -1.9964  -0.0848
C       -2.5642  -1.3186  -0.4543
C       -2.4349  -1.1773  1.0740
N       1.4661  0.0956  -1.2958
N       1.0772  -1.4716  0.8554
N       -1.1552  -1.2652  -1.0010
N       -1.4708  -0.0335  1.3018
H       2.9133  -2.5615  0.4608
H       1.6982  -2.6619  -0.7985
H       -3.0838  -0.4598  -0.8492
H       -3.0678  -2.2138  -0.7862
H       1.6781  1.0801  -1.3283
H       1.2071  -0.1626  -2.2283
H       -1.9350  0.8531  1.1934
H       -1.0959  -0.0300  2.2318
H       -2.0287  -2.0654  1.5376
H       -3.3852  -0.9668  1.5416
H       0.5464  -2.2222  1.2616
H       1.5213  -0.9790  1.6149
H       3.3262  -0.9333  -1.6775
H       3.2553  -0.0694  -0.1529
H       -0.7559  -2.1861  -0.9931
H       -1.1938  -0.9582  -1.9552
