27

Co      -0.0278  -0.0296  -0.0178
Cl      -1.1066  1.6400  -1.2280
Cl      1.1857  1.4777  1.3918
C       2.6986  -0.7203  -0.8028
C       2.1615  -1.9704  -0.0865
C       -2.5529  -1.3211  -0.4477
C       -2.4460  -1.1848  1.0764
N       1.5116  0.0845  -1.3433
N       1.1234  -1.5197  0.8692
N       -1.1483  -1.2682  -0.9873
N       -1.4885  -0.0400  1.3177
H       2.9297  -2.5720  0.3893
H       1.6741  -2.5938  -0.8293
H       -3.0628  -0.4536  -0.8387
H       -3.0630  -2.2090  -0.7955
H       1.7328  1.0677  -1.3628
H       1.2973  -0.1749  -2.2869
H       -1.9481  0.8487  1.2227
H       -1.1055  -0.0532  2.2466
H       -2.0510  -2.0706  1.5553
H       -3.4087  -0.9739  1.5166
H       0.6295  -2.3009  1.2595
H       1.5594  -1.0295  1.6354
H       3.3251  -1.0296  -1.6241
H       3.2725  -0.0752  -0.1590
H       -0.7442  -2.1892  -0.9733
H       -1.1796  -0.9660  -1.9419
