27

Co      -0.0320  0.0046  -0.0017
Cl      -1.0912  1.6128  -1.2199
Cl      1.1720  1.4560  1.3713
C       2.7241  -0.7212  -0.8425
C       2.1747  -1.9705  -0.1141
C       -2.5540  -1.3234  -0.4394
C       -2.4373  -1.1553  1.0572
N       1.5393  0.0708  -1.3336
N       1.0876  -1.5108  0.8921
N       -1.1617  -1.2948  -1.0161
N       -1.4749  -0.0577  1.3318
H       2.9035  -2.4953  0.4918
H       1.7539  -2.6785  -0.8157
H       -3.1508  -0.5217  -0.8504
H       -2.9853  -2.2686  -0.7509
H       1.7179  1.0630  -1.3194
H       1.1745  -0.1559  -2.2425
H       -1.8817  0.8568  1.2398
H       -1.0624  -0.0974  2.2457
H       -2.0716  -2.0769  1.4870
H       -3.3759  -0.9197  1.5339
H       0.5519  -2.2900  1.2183
H       1.4591  -1.0079  1.6838
H       3.3476  -0.9031  -1.7144
H       3.2912  -0.1358  -0.1358
H       -0.7171  -2.1972  -1.0261
H       -1.1799  -0.9295  -1.9484
