27

Co      0.1111  0.0640  0.0633
Cl      -0.0096  -2.3957  -0.2320
Cl      -0.0099  2.3009  0.2159
N       -1.5272  0.1392  -1.4129
N       -1.4291  -0.1606  1.3627
N       1.4266  0.1235  -1.3460
N       1.3284  -0.1445  1.2958
C       -2.7914  0.4220  -0.6694
C       -2.7180  -0.3906  0.6091
C       2.7081  0.4190  -0.6705
C       2.6347  -0.3872  0.6104
H       -1.3962  0.8098  -2.1468
H       -2.8503  1.4798  -0.4847
H       -3.6671  0.1192  -1.2326
H       -3.5567  -0.1835  1.2583
H       -2.7344  -1.4422  0.3653
H       -1.5193  0.6452  1.9633
H       -1.2859  -0.9666  1.9483
H       1.4444  -0.7864  -1.7778
H       1.2147  0.8059  -2.0467
H       3.5497  0.1110  -1.2666
H       2.7728  1.4768  -0.4894
H       2.6571  -1.4389  0.3700
H       3.4393  -0.1747  1.2924
H       1.1041  -0.9621  1.8483
H       1.3861  0.6506  1.9095
H       -1.5773  -0.7844  -1.8317
