27

Co      0.0000  0.0000  0.0000
Cl      0.0002  -2.3375  -0.2239
Cl      -0.0001  2.3375  0.2240
N       -1.3262  0.1374  -1.2733
N       -1.3262  -0.1375  1.2732
N       1.3262  0.1373  -1.2732
N       1.3261  -0.1371  1.2732
C       -2.7818  0.4400  -0.6977
C       -2.7820  -0.4393  0.6977
C       2.7819  0.4400  -0.6979
C       2.7820  -0.4389  0.6979
H       -1.2038  0.8134  -2.0230
H       -2.6749  1.5108  -0.5207
H       -3.6777  0.2532  -1.2802
H       -3.6709  -0.2521  1.2872
H       -2.6756  -1.5143  0.5207
H       -1.6102  0.6969  1.8081
H       -1.2043  -0.8139  2.0225
H       1.6173  -0.6976  -1.8074
H       1.2040  0.8131  -2.0232
H       3.6777  0.2528  -1.2804
H       2.6750  1.5151  -0.5213
H       2.6759  -1.5140  0.5213
H       3.6776  -0.2512  1.2805
H       1.2042  -0.8131  2.0229
H       1.6167  0.6977  1.8078
H       -1.6173  -0.6973  -1.8078
