27

Co      0.0000  -0.0092  0.0583
Cl      0.0002  -2.2864  -0.2190
Cl      -0.0001  2.2926  0.2129
N       -1.5223  0.1443  -1.3740
N       -1.4242  -0.1506  1.3187
N       1.5223  0.1442  -1.3739
N       1.4241  -0.1501  1.3187
C       -2.8032  0.4205  -0.6674
C       -2.7298  -0.3891  0.6121
C       2.8032  0.4205  -0.6675
C       2.7298  -0.3887  0.6124
H       -1.3257  0.8665  -2.0356
H       -2.8756  1.4783  -0.4818
H       -3.6565  0.1123  -1.2524
H       -3.5461  -0.1665  1.2832
H       -2.7597  -1.4407  0.3775
H       -1.4780  0.6875  1.8638
H       -1.2709  -0.9223  1.9431
H       1.5764  -0.7280  -1.8631
H       1.3259  0.8662  -2.0358
H       3.6565  0.1120  -1.2525
H       2.8757  1.4783  -0.4824
H       2.7600  -1.4404  0.3782
H       3.5460  -0.1656  1.2833
H       1.2708  -0.9215  1.9435
H       1.4778  0.6882  1.8635
H       -1.5765  -0.7308  -1.8635
