27

Co      0.0000  0.0000  0.0000
Cl      0.0002  -2.3136  -0.2217
Cl      -0.0001  2.3137  0.2218
N       -1.7562  0.1136  -1.4512
N       -1.6383  -0.1137  1.3406
N       1.6384  0.1191  -1.3407
N       1.7561  -0.1188  1.4511
C       -2.8139  0.4700  -0.5749
C       -2.7405  -0.4472  0.5454
C       2.7403  0.4479  -0.5456
C       2.8141  -0.4689  0.5751
H       -1.3947  0.8312  -2.0675
H       -3.1136  1.5030  -0.3349
H       -3.5735  0.0348  -1.2389
H       -3.4477  -0.0484  1.2912
H       -3.0406  -1.4759  0.2834
H       -1.6539  0.7646  1.8209
H       -1.2478  -0.8612  1.9124
H       1.6418  -0.7652  -1.8258
H       1.2476  0.8660  -1.9075
H       3.4409  0.0435  -1.2979
H       3.0457  1.4711  -0.2896
H       3.1202  -1.4921  0.3412
H       3.5734  -0.0272  1.2392
H       1.3950  -0.8366  2.0618
H       1.7885  0.7874  1.8924
H       -1.7947  -0.7870  -1.8868
