27

Co      0.0000  0.0000  0.0000
Cl      0.0002  -2.2065  -0.2021
Cl      -0.0001  2.2065  0.2022
N       -1.2342  0.1728  -1.2336
N       -1.3520  -0.1729  1.3439
N       1.3520  0.1671  -1.3440
N       1.2341  -0.1668  1.2335
C       -2.7528  0.3849  -0.6966
C       -2.8267  -0.4063  0.7260
C       2.8265  0.4069  -0.7261
C       2.7531  -0.3838  0.6968
H       -1.3382  0.9472  -1.9271
H       -2.7561  1.4541  -0.5563
H       -3.4475  0.1632  -1.5242
H       -3.5733  -0.1474  1.4722
H       -2.8304  -1.4797  0.6079
H       -1.7428  0.5895  1.9929
H       -1.4859  -0.9183  2.0812
H       1.7554  -0.5902  -1.9865
H       1.4857  0.9118  -2.0875
H       3.5800  0.1538  -1.4654
H       2.8242  1.4860  -0.6029
H       2.7514  -1.4628  0.5514
H       3.4474  -0.1669  1.5245
H       1.3385  -0.9414  1.9326
H       1.6077  0.5682  1.9206
H       -1.6026  -0.5678  -1.9263
