27

Co      0.0000  -0.0732  -0.0050
Cl      0.0002  -2.2497  -0.2109
Cl      -0.0001  2.3508  0.2211
N       -1.5478  0.1664  -1.4097
N       -1.5478  -0.1513  1.4046
N       1.5478  0.1663  -1.4096
N       1.5478  -0.1508  1.4046
C       -2.7043  0.3636  -0.6064
C       -2.7045  -0.3629  0.6114
C       2.7043  0.3635  -0.6065
C       2.7045  -0.3624  0.6117
H       -1.3979  0.9902  -1.9722
H       -2.8007  1.4225  -0.4166
H       -3.6125  0.0466  -1.1116
H       -3.6125  -0.0354  1.1168
H       -2.8013  -1.4175  0.4318
H       -1.5886  0.7227  1.8932
H       -1.4538  -0.8898  2.0778
H       1.6293  -0.6274  -2.0238
H       1.3980  0.9899  -1.9724
H       3.6125  0.0462  -1.1118
H       2.8008  1.4183  -0.4172
H       2.8016  -1.4172  0.4324
H       3.6124  -0.0345  1.1170
H       1.4537  -0.8890  2.0782
H       1.5884  0.7235  1.8928
H       -1.6293  -0.6272  -2.0242
