27

Co      0.0000  0.0732  0.0050
Cl      0.0002  -2.3158  -0.2152
Cl      -0.0001  2.2148  0.2052
N       -1.2618  0.1596  -1.3147
N       -1.2618  -0.1748  1.3196
N       1.2618  0.1539  -1.3146
N       1.2618  -0.1687  1.3196
C       -2.7489  0.3509  -0.6802
C       -2.7491  -0.3502  0.6751
C       2.7489  0.3508  -0.6803
C       2.7491  -0.3497  0.6754
H       -1.4397  0.9335  -2.0173
H       -2.6747  1.3997  -0.4405
H       -3.4143  0.2623  -1.6016
H       -3.4143  -0.2713  1.5967
H       -2.6753  -1.4032  0.4254
H       -1.2457  0.6122  1.9709
H       -1.3846  -1.0351  1.9108
H       1.2112  -0.7088  -1.8332
H       1.4399  0.9276  -2.0232
H       3.4143  0.2675  -1.6018
H       2.6691  1.4096  -0.4355
H       2.6700  -1.4085  0.4204
H       3.4142  -0.2760  1.5969
H       1.3845  -1.0287  1.9168
H       1.2511  0.6130  1.9649
H       -1.2056  -0.7085  -1.8393
