27

Co      -0.0376  0.0000  0.0000
Cl      0.0002  -2.3560  -0.2185
Cl      -0.0001  2.3561  0.2186
N       -1.4784  0.1448  -1.2534
N       -1.4784  -0.1449  1.2533
N       1.5399  0.1652  -1.4035
N       1.5398  -0.1649  1.4035
C       -2.8176  0.4060  -0.6329
C       -2.8178  -0.4053  0.6329
C       2.8177  0.3992  -0.6467
C       2.8178  -0.3981  0.6468
H       -1.2725  0.8805  -1.9042
H       -2.8967  1.4607  -0.4271
H       -3.6056  0.1229  -1.3172
H       -3.6056  -0.1218  1.3173
H       -2.8974  -1.4600  0.4271
H       -1.5109  0.7158  1.7588
H       -1.2729  -0.8810  1.9037
H       1.5999  -0.6823  -1.9391
H       1.3956  0.9280  -2.0342
H       3.6738  0.1157  -1.2490
H       2.8763  1.4539  -0.4482
H       2.8772  -1.4528  0.4483
H       3.6738  -0.1141  1.2492
H       1.3957  -0.9280  2.0339
H       1.5994  0.6824  1.9395
H       -1.5112  -0.7162  -1.7585
