27

Co      0.0000  0.0000  0.0000
Cl      0.0002  -2.2653  -0.2101
Cl      -0.0001  2.2653  0.2102
N       -1.2899  0.1717  -1.2715
N       -1.2899  -0.1718  1.2714
N       1.2899  0.1660  -1.2714
N       1.2899  -0.1657  1.2714
C       -2.6813  0.3579  -0.6733
C       -2.6815  -0.3572  0.6733
C       2.6814  0.3579  -0.6734
C       2.6815  -0.3568  0.6735
H       -1.4482  0.9414  -1.9870
H       -2.7372  1.4313  -0.5667
H       -3.4446  0.0583  -1.3753
H       -3.4378  -0.0572  1.3822
H       -2.7379  -1.4306  0.5668
H       -1.6660  0.5738  1.9524
H       -1.4486  -0.9419  1.9866
H       1.6786  -0.5745  -1.9461
H       1.4484  0.9354  -1.9929
H       3.4445  0.0635  -1.3755
H       2.7317  1.4370  -0.5618
H       2.7326  -1.4359  0.5618
H       3.4445  -0.0620  1.3756
H       1.4486  -0.9355  1.9926
H       1.6781  0.5746  1.9464
H       -1.6730  -0.5742  -1.9521
