27

Co      0.0000  0.0000  0.0000
Cl      0.0002  -2.2838  -0.2047
Cl      -0.0001  2.2839  0.2048
N       -1.4180  0.1991  -1.3317
N       -1.4180  -0.1993  1.3316
N       1.4180  0.1934  -1.3316
N       1.4180  -0.1931  1.3316
C       -2.7788  0.3590  -0.6950
C       -2.7790  -0.3583  0.6950
C       2.7788  0.3590  -0.6951
C       2.7790  -0.3579  0.6952
H       -1.3570  0.9738  -1.9832
H       -2.8236  1.4397  -0.6134
H       -3.7089  0.0006  -1.1601
H       -3.7021  0.0005  1.1671
H       -2.8242  -1.4390  0.6134
H       -1.6699  0.5704  1.9764
H       -1.3574  -0.9743  1.9827
H       1.6826  -0.5710  -1.9701
H       1.3572  0.9679  -1.9890
H       3.7088  0.0058  -1.1603
H       2.8180  1.4454  -0.6084
H       2.8189  -1.4443  0.6084
H       3.7088  -0.0043  1.1604
H       1.3573  -0.9679  1.9887
H       1.6821  0.5711  1.9705
H       -1.6770  -0.5708  -1.9761
