27

Co      0.0000  -0.0640  -0.0633
Cl      0.0002  -2.2420  -0.2078
Cl      -0.0001  2.3369  0.2241
N       -1.4794  0.1558  -1.2960
N       -1.5775  -0.1346  1.3460
N       1.4794  0.1557  -1.2959
N       1.5775  -0.1341  1.3461
C       -2.6552  0.4037  -0.5781
C       -2.7290  -0.4336  0.6383
C       2.6553  0.4036  -0.5782
C       2.7290  -0.4332  0.6386
H       -1.1976  0.9567  -1.8522
H       -2.9166  1.4595  -0.4156
H       -3.4407  -0.0432  -1.1924
H       -3.5511  0.1096  1.1669
H       -3.0338  -1.4914  0.5351
H       -1.7862  0.7463  1.8114
H       -1.3087  -0.8011  2.0498
H       1.7287  -0.6111  -1.9420
H       1.1978  0.9564  -1.8525
H       3.4407  -0.0436  -1.1925
H       2.9167  1.4553  -0.4162
H       3.0341  -1.4910  0.5357
H       3.5511  0.1105  1.1670
H       1.3087  -0.8003  2.0502
H       1.7859  0.7470  1.8111
H       -1.7287  -0.6078  -1.9424
