27

Co      -0.0376  0.0000  0.0000
Cl      0.0002  -2.2471  -0.2191
Cl      -0.0001  2.2471  0.2192
N       -1.5483  0.1047  -1.3438
N       -1.5483  -0.1048  1.3437
N       1.6098  0.1307  -1.4939
N       1.6098  -0.1304  1.4940
C       -2.8070  0.4443  -0.6120
C       -2.8072  -0.4436  0.6120
C       2.8071  0.4375  -0.6258
C       2.8072  -0.4364  0.6259
H       -1.3503  0.8002  -2.0451
H       -2.7654  1.4934  -0.3337
H       -3.6757  0.2886  -1.2396
H       -3.6756  -0.2876  1.2397
H       -2.7661  -1.4927  0.3337
H       -1.6351  0.7808  1.7953
H       -1.3507  -0.8007  2.0447
H       1.7185  -0.7473  -1.9811
H       1.4734  0.8533  -2.1695
H       3.7439  0.2758  -1.1714
H       2.7507  1.4810  -0.3605
H       2.7515  -1.4799  0.3605
H       3.7439  -0.2742  1.1716
H       1.4735  -0.8534  2.1692
H       1.7180  0.7474  1.9815
H       -1.6353  -0.7812  -1.7950
