27

Co      0.0736  0.0732  0.0050
Cl      -0.0096  -2.3265  -0.2152
Cl      -0.0099  2.2256  0.2052
N       -1.3564  0.1761  -1.3134
N       -1.3564  -0.1913  1.3184
N       1.3172  0.1753  -1.3967
N       1.3171  -0.1901  1.4018
C       -2.7158  0.3665  -0.6902
C       -2.7160  -0.3658  0.6851
C       2.6325  0.3567  -0.7050
C       2.6327  -0.3556  0.7000
H       -1.3302  0.8830  -2.0500
H       -2.7393  1.4472  -0.5983
H       -3.6469  0.0314  -1.1591
H       -3.6401  -0.0404  1.1610
H       -2.7400  -1.4465  0.5832
H       -1.6386  0.5554  1.9965
H       -1.2751  -0.9845  1.9435
H       1.5667  -0.6226  -1.9864
H       1.2716  0.9212  -2.0853
H       3.5978  0.0219  -1.1249
H       2.6357  1.4430  -0.6179
H       2.6366  -1.4419  0.6028
H       3.5978  -0.0305  1.1200
H       1.2162  -1.0222  1.9789
H       1.6066  0.5267  2.1180
H       -1.6052  -0.6517  -1.8649
