27

Co      0.0000  0.0000  0.0000
Cl      0.0002  -2.3002  -0.2159
Cl      -0.0001  2.3003  0.2160
N       -1.5916  0.1478  -1.5081
N       -1.4738  -0.1479  1.3975
N       1.4738  0.1477  -1.3976
N       1.5916  -0.1474  1.5080
C       -2.7892  0.4194  -0.6345
C       -2.7158  -0.3966  0.6051
C       2.7157  0.3973  -0.6052
C       2.7894  -0.4183  0.6347
H       -1.3334  0.9352  -2.0669
H       -2.9240  1.4538  -0.3744
H       -3.5642  0.1330  -1.3344
H       -3.4384  -0.1466  1.3867
H       -2.8510  -1.4310  0.3229
H       -1.2827  0.7307  1.9044
H       -1.1865  -0.9652  1.9117
H       1.2762  -0.7313  -1.9037
H       1.1863  0.9644  -1.9125
H       3.4317  0.1473  -1.3935
H       2.8505  1.4317  -0.3235
H       2.9249  -1.4527  0.3751
H       3.5642  -0.1310  1.3347
H       1.3337  -0.9350  2.0668
H       1.4229  0.7535  1.9704
H       -1.4235  -0.7531  -1.9704
