27

Co      -0.1111  -0.0732  -0.0050
Cl      0.0101  -2.3163  -0.2134
Cl      0.0097  2.4173  0.2236
N       -1.5604  0.1595  -1.3787
N       -1.5604  -0.1444  1.3735
N       1.6611  0.1750  -1.4455
N       1.6611  -0.1595  1.4405
C       -2.7070  0.3663  -0.5798
C       -2.7073  -0.3656  0.5848
C       2.7905  0.3692  -0.5789
C       2.7906  -0.3681  0.5840
H       -1.2614  1.0258  -1.8405
H       -2.9260  1.4049  -0.3381
H       -3.4566  0.0154  -1.2796
H       -3.4633  -0.0042  1.2780
H       -2.9266  -1.3999  0.3533
H       -1.3401  0.7691  1.8180
H       -1.3174  -0.9253  1.9461
H       1.5069  -0.6691  -2.0021
H       1.4434  1.0291  -1.9411
H       3.5739  0.0229  -1.2458
H       3.0037  1.4036  -0.3347
H       3.0045  -1.4025  0.3499
H       3.5738  -0.0112  1.2510
H       1.4991  -0.9282  2.0468
H       1.4660  0.7651  1.8711
H       -1.3740  -0.6735  -1.9490
