27

Co      -0.0376  0.0092  -0.0583
Cl      0.0002  -2.2925  -0.2128
Cl      -0.0001  2.2864  0.2191
N       -1.4524  0.1402  -1.2989
N       -1.4327  -0.1342  1.2436
N       1.3960  0.1606  -1.3386
N       1.6119  -0.1542  1.5043
C       -2.7664  0.4043  -0.6201
C       -2.7666  -0.4122  0.6458
C       2.6928  0.3753  -0.6044
C       2.8402  -0.4270  0.6891
H       -1.2827  0.8831  -1.9560
H       -2.8061  1.4559  -0.3930
H       -3.5782  0.1636  -1.2877
H       -3.5561  -0.1220  1.3161
H       -2.8497  -1.4699  0.4458
H       -1.4582  0.7365  1.7385
H       -1.1910  -0.8579  1.8929
H       1.4490  -0.6631  -1.9188
H       1.2585  0.9601  -1.9314
H       3.5140  0.1711  -1.2785
H       2.7121  1.4270  -0.3626
H       2.9031  -1.4848  0.5185
H       3.7569  -0.0996  1.1890
H       1.4611  -0.8755  2.1777
H       1.6940  0.7251  1.9854
H       -1.5076  -0.7160  -1.8045
