27

Co      0.0000  0.0000  0.0000
Cl      0.0002  -2.2894  -0.2159
Cl      -0.0001  2.2895  0.2160
N       -1.5426  0.1448  -1.3414
N       -1.5426  -0.1449  1.3413
N       1.5426  0.1448  -1.3413
N       1.5426  -0.1445  1.3413
C       -2.7047  0.3739  -0.5746
C       -2.7049  -0.3732  0.5746
C       2.7047  0.3739  -0.5747
C       2.7049  -0.3728  0.5748
H       -1.3012  0.9382  -1.9032
H       -2.9207  1.4125  -0.3288
H       -3.4446  0.0276  -1.2893
H       -3.4513  -0.0265  1.2826
H       -2.9214  -1.4076  0.3288
H       -1.3591  0.7506  1.8173
H       -1.3016  -0.9387  1.9027
H       1.3526  -0.7512  -1.8165
H       1.3014  0.9379  -1.9034
H       3.4445  0.0272  -1.2894
H       2.9209  1.4083  -0.3294
H       2.9217  -1.4072  0.3295
H       3.4445  -0.0256  1.2896
H       1.3015  -0.9379  1.9031
H       1.3521  0.7513  1.8169
H       -1.3526  -0.7509  -1.8169
