27

Co      0.1111  0.0000  0.0000
Cl      -0.0096  -2.3375  -0.2239
Cl      -0.0099  2.3375  0.2240
N       -1.3490  0.1444  -1.3067
N       -1.3490  -0.1445  1.3066
N       1.2483  0.1288  -1.2398
N       1.2483  -0.1285  1.2398
C       -2.8429  0.3824  -0.6762
C       -2.8432  -0.3817  0.6762
C       2.7596  0.3793  -0.6774
C       2.7598  -0.3782  0.6774
H       -1.6426  0.8622  -2.1225
H       -2.5865  1.4459  -0.4312
H       -3.6751  0.4037  -1.4337
H       -3.6683  -0.4026  1.4407
H       -2.5871  -1.4494  0.4312
H       -1.5978  0.6777  1.8761
H       -1.6430  -0.8627  2.1220
H       1.4720  -0.6830  -1.8219
H       1.4610  0.8582  -2.0224
H       3.5578  0.3954  -1.4678
H       2.5090  1.4472  -0.4359
H       2.5098  -1.4461  0.4359
H       3.5577  -0.3938  1.4680
H       1.4611  -0.8583  2.0220
H       1.4714  0.6831  1.8223
H       -1.6049  -0.6780  -1.8758
