27

Co      -0.0376  -0.0640  -0.0633
Cl      0.0002  -2.3086  -0.2104
Cl      -0.0001  2.4035  0.2267
N       -1.4665  0.1034  -1.2874
N       -1.4468  -0.0822  1.2270
N       1.4102  0.1238  -1.3271
N       1.6261  -0.1022  1.4877
C       -2.8586  0.3957  -0.5568
C       -2.8588  -0.4036  0.5876
C       2.7850  0.3668  -0.5411
C       2.9324  -0.4184  0.6309
H       -0.9885  1.0203  -1.6727
H       -2.8900  1.4461  -0.3337
H       -3.8230  0.0814  -0.9945
H       -3.8009  -0.0298  1.0280
H       -2.9336  -1.4601  0.4016
H       -1.4031  0.7395  1.8129
H       -0.9525  -0.8941  1.7157
H       1.4344  -0.5702  -2.1244
H       0.9644  1.0973  -1.6547
H       3.7587  0.0823  -0.9810
H       2.8003  1.4172  -0.3033
H       2.9913  -1.4750  0.4743
H       4.0016  -0.0007  0.8966
H       1.2292  -0.9117  2.0071
H       1.6389  0.7282  2.0598
H       -1.4929  -0.6231  -2.0101
