27

Co      -0.1111  0.0092  -0.0583
Cl      0.0101  -2.3647  -0.2266
Cl      0.0097  2.3586  0.2329
N       -1.5535  0.1169  -1.2917
N       -1.5338  -0.1109  1.2364
N       1.5364  0.1380  -1.2480
N       1.7523  -0.1316  1.4137
C       -2.7154  0.4054  -0.5758
C       -2.7156  -0.4133  0.6016
C       2.7252  0.3863  -0.5455
C       2.8726  -0.4379  0.6302
H       -1.1778  0.8110  -1.9560
H       -2.7117  1.4629  -0.3339
H       -3.7446  0.1399  -0.9473
H       -3.7224  -0.0983  0.9757
H       -2.7552  -1.4727  0.3866
H       -1.4648  0.8195  1.6326
H       -1.0862  -0.7858  1.8929
H       1.4942  -0.7756  -1.6910
H       1.2125  0.8494  -1.8963
H       3.7294  0.1565  -0.9724
H       2.7214  1.4340  -0.2845
H       2.9124  -1.4918  0.4404
H       3.9723  -0.0850  0.8830
H       1.4151  -0.7648  2.1426
H       1.7391  0.8376  1.7577
H       -1.5142  -0.7990  -1.6986
