27

Co      0.0376  0.0000  0.0000
Cl      0.0002  -2.2172  -0.2021
Cl      -0.0001  2.2173  0.2022
N       -1.4829  0.2078  -1.4279
N       -1.4829  -0.2079  1.4278
N       1.4215  0.1816  -1.2776
N       1.4214  -0.1813  1.2776
C       -2.6865  0.3650  -0.7433
C       -2.6867  -0.3643  0.7433
C       2.6865  0.3718  -0.7298
C       2.6867  -0.3707  0.7299
H       -1.3055  1.0232  -1.9817
H       -2.7362  1.4339  -0.5964
H       -3.5346  0.1010  -1.3492
H       -3.5346  -0.0999  1.3494
H       -2.7368  -1.4332  0.5964
H       -1.4630  0.6093  2.0218
H       -1.3059  -1.0237  1.9813
H       1.3801  -0.6440  -1.8345
H       1.1828  0.9694  -1.8579
H       3.4663  0.1130  -1.4220
H       2.7468  1.4463  -0.5709
H       2.7477  -1.4452  0.5710
H       3.4663  -0.1115  1.4221
H       1.1829  -0.9695  1.8575
H       1.3796  0.6441  1.8349
H       -1.4633  -0.6096  -2.0215
