27

Co      -0.0376  0.0000  0.0000
Cl      0.0002  -2.3668  -0.2185
Cl      -0.0001  2.3669  0.2186
N       -1.5696  0.1520  -1.3947
N       -1.4518  -0.1521  1.2842
N       1.5132  0.1724  -1.4344
N       1.6310  -0.1721  1.5449
C       -2.8472  0.4135  -0.6548
C       -2.7738  -0.3907  0.6254
C       2.7737  0.3845  -0.6392
C       2.8474  -0.4055  0.6687
H       -1.3892  0.8945  -2.0425
H       -2.9084  1.4682  -0.4601
H       -3.7042  0.1227  -1.2483
H       -3.5716  -0.1363  1.3073
H       -2.8354  -1.4454  0.4085
H       -1.4767  0.6832  1.8334
H       -1.2423  -0.9245  1.8874
H       1.5658  -0.6497  -2.0136
H       1.3650  0.9714  -2.0179
H       3.6399  0.1302  -1.2390
H       2.8144  1.4393  -0.4296
H       2.8889  -1.4603  0.4812
H       3.7724  -0.1139  1.1803
H       1.5124  -0.9420  2.1722
H       1.7125  0.6719  2.0803
H       -1.6243  -0.7057  -1.8993
