27

Co      0.0736  0.0640  0.0633
Cl      -0.0096  -2.3127  -0.2182
Cl      -0.0099  2.2179  0.2021
N       -1.4003  0.1590  -1.2752
N       -1.3021  -0.1805  1.2250
N       1.3611  0.1583  -1.3585
N       1.2629  -0.1793  1.3084
C       -2.7530  0.3922  -0.6835
C       -2.6796  -0.3608  0.6232
C       2.6697  0.3824  -0.6983
C       2.5962  -0.3506  0.6381
H       -1.2334  0.8538  -1.9739
H       -2.9177  1.4556  -0.5551
H       -3.5341  -0.0102  -1.3189
H       -3.4237  -0.0541  1.3447
H       -2.8018  -1.4181  0.4357
H       -1.3398  0.6097  1.8549
H       -1.1231  -1.0105  1.7754
H       1.3593  -0.7168  -1.8448
H       1.1747  0.8920  -2.0092
H       3.4851  -0.0196  -1.2847
H       2.8141  1.4514  -0.5747
H       2.6984  -1.4135  0.4553
H       3.3746  -0.0441  1.3105
H       1.0641  -1.0483  1.8108
H       1.3010  0.5810  1.9765
H       -1.3978  -0.7490  -1.7233
