27

Co      0.0000  0.0732  0.0050
Cl      0.0002  -2.3399  -0.2210
Cl      -0.0001  2.2390  0.2110
N       -1.3872  0.1466  -1.2683
N       -1.5050  -0.1619  1.3837
N       1.5051  0.1465  -1.3787
N       1.3872  -0.1614  1.2733
C       -2.7363  0.3873  -0.6547
C       -2.8102  -0.4087  0.6791
C       2.8100  0.4094  -0.6843
C       2.7366  -0.3862  0.6498
H       -1.3336  0.8312  -2.0263
H       -2.6856  1.4624  -0.4996
H       -3.6707  0.1490  -1.1640
H       -3.7964  -0.1433  1.1070
H       -2.7599  -1.4838  0.5360
H       -1.8312  0.6178  1.9965
H       -1.4258  -0.9033  2.0744
H       1.7978  -0.7144  -1.8645
H       1.4811  0.8015  -2.1812
H       3.8032  0.1339  -1.1052
H       2.7593  1.4845  -0.5518
H       2.6865  -1.4613  0.4851
H       3.6706  -0.1572  1.1593
H       1.2784  -0.9320  1.9202
H       1.6904  0.5964  1.9299
H       -1.6506  -0.6920  -1.7986
