27

Co      -0.1111  -0.0640  -0.0633
Cl      0.0101  -2.3250  -0.2216
Cl      0.0097  2.4199  0.2379
N       -1.6325  0.0719  -1.3874
N       -1.6128  -0.0507  1.3270
N       1.6154  0.0930  -1.3438
N       1.8313  -0.0714  1.5044
C       -2.6886  0.4472  -0.5532
C       -2.6888  -0.4551  0.5840
C       2.6984  0.4280  -0.5228
C       2.8458  -0.4797  0.6126
H       -0.9024  0.9845  -1.6908
H       -2.8642  1.4844  -0.2837
H       -3.5835  0.0949  -1.0603
H       -3.5682  -0.0432  1.0869
H       -2.9078  -1.4941  0.3516
H       -1.4950  0.8011  1.8592
H       -0.8663  -0.8583  1.7337
H       1.5580  -0.6612  -2.0488
H       0.9371  1.0229  -1.6377
H       3.5683  0.1049  -1.0854
H       2.8739  1.4554  -0.2344
H       3.0649  -1.5132  0.4054
H       3.8112  -0.0233  1.0010
H       1.2019  -0.8373  1.9901
H       1.7625  0.8192  1.9842
H       -1.5780  -0.6847  -2.0564
