27

Co      0.0376  -0.0092  0.0583
Cl      0.0002  -2.2678  -0.2244
Cl      -0.0001  2.2740  0.2184
N       -1.3806  0.1344  -1.3337
N       -1.4002  -0.1406  1.3889
N       1.4370  0.1138  -1.2939
N       1.2209  -0.1196  1.1282
C       -2.6689  0.4122  -0.6523
C       -2.6691  -0.4029  0.6265
C       2.7426  0.4411  -0.6682
C       2.5955  -0.3872  0.5836
H       -1.1865  0.8582  -1.9906
H       -2.7204  1.4700  -0.4487
H       -3.5056  0.1376  -1.2664
H       -3.5277  -0.1770  1.2383
H       -2.6781  -1.4545  0.3960
H       -1.4830  0.7213  1.8997
H       -1.2790  -0.8845  2.0528
H       1.4926  -0.7959  -1.7180
H       1.2110  0.7806  -2.0158
H       3.5698  0.1293  -1.2759
H       2.8146  1.4989  -0.4804
H       2.6253  -1.4389  0.3246
H       3.3268  -0.1977  1.3657
H       1.0087  -0.8654  1.7688
H       1.2467  0.7340  1.6521
H       -1.4341  -0.7425  -1.8331
