27

Co      -0.0736  -0.0732  -0.0050
Cl      0.0101  -2.3219  -0.2247
Cl      0.0097  2.4230  0.2349
N       -1.6338  0.1320  -1.4482
N       -1.6338  -0.1170  1.4430
N       1.6731  0.1327  -1.3648
N       1.6730  -0.1172  1.3597
C       -2.7014  0.4095  -0.5731
C       -2.7016  -0.4088  0.5781
C       2.7848  0.4193  -0.5585
C       2.7850  -0.4182  0.5636
H       -1.1271  0.9283  -1.9365
H       -2.7927  1.4497  -0.2819
H       -3.6643  0.1217  -1.0210
H       -3.6711  -0.1105  1.0194
H       -2.7934  -1.4448  0.2971
H       -1.3428  0.8727  1.7661
H       -1.1831  -0.8279  2.0420
H       1.4152  -0.8068  -1.7748
H       1.1862  0.8895  -1.9017
H       3.7133  0.1304  -1.0554
H       2.8965  1.4497  -0.2636
H       2.8974  -1.4486  0.2788
H       3.7133  -0.1187  1.0606
H       1.2419  -0.7886  2.0074
H       1.3743  0.9029  1.6438
H       -1.3767  -0.7771  -1.8970
