27

Co      0.0376  0.0000  0.0000
Cl      0.0002  -2.2653  -0.2101
Cl      -0.0001  2.2653  0.2102
N       -1.3285  0.2356  -1.3599
N       -1.3285  -0.2358  1.3598
N       1.2671  0.2095  -1.2096
N       1.2671  -0.2092  1.2096
C       -2.6747  0.3751  -0.7013
C       -2.6749  -0.3744  0.7013
C       2.6747  0.3819  -0.6878
C       2.6749  -0.3807  0.6878
H       -1.3711  0.8511  -2.2147
H       -2.7716  1.4557  -0.6260
H       -3.5977  -0.0412  -1.1514
H       -3.5908  0.0423  1.1583
H       -2.7722  -1.4550  0.6260
H       -1.5681  0.6728  1.7866
H       -1.3715  -0.8517  2.2142
H       1.4919  -0.7076  -1.5993
H       1.2484  0.7974  -2.0842
H       3.5293  -0.0225  -1.2198
H       2.7865  1.4682  -0.6005
H       2.7874  -1.4671  0.6006
H       3.5293  0.0241  1.2200
H       1.2419  -0.7975  2.0838
H       1.4914  0.7077  1.5997
H       -1.5751  -0.6732  -1.7863
