27

Co      0.1111  0.0732  0.0050
Cl      -0.0096  -2.2570  -0.2072
Cl      -0.0099  2.1560  0.1972
N       -1.4273  0.1777  -1.3147
N       -1.4273  -0.1930  1.3197
N       1.3267  0.1564  -1.2478
N       1.3266  -0.1713  1.2529
C       -2.7696  0.3735  -0.6627
C       -2.7699  -0.3728  0.6576
C       2.6863  0.3705  -0.6639
C       2.6865  -0.3693  0.6589
H       -1.3153  0.9133  -1.9848
H       -2.9133  1.4338  -0.5159
H       -3.5612  0.0060  -1.3054
H       -3.5611  -0.0150  1.3005
H       -2.9139  -1.4331  0.5008
H       -1.4787  0.6061  1.9417
H       -1.2602  -1.0148  1.8783
H       1.3112  -0.7074  -1.7507
H       1.1338  0.9037  -1.8903
H       3.4438  0.0034  -1.3395
H       2.8302  1.4364  -0.5149
H       2.8310  -1.4353  0.4998
H       3.4438  -0.0119  1.3346
H       1.0784  -1.0048  1.7839
H       1.3511  0.6116  1.8823
H       -1.4385  -0.7024  -1.8101
