27

Co      0.0000  0.0732  0.0050
Cl      0.0002  -2.2626  -0.2184
Cl      -0.0001  2.1617  0.2084
N       -1.3161  0.1805  -1.2939
N       -1.3161  -0.1957  1.2989
N       1.3162  0.1804  -1.2939
N       1.3161  -0.1952  1.2989
C       -2.7968  0.4040  -0.7004
C       -2.7971  -0.4033  0.6954
C       2.7969  0.4039  -0.7005
C       2.7971  -0.4028  0.6956
H       -1.4531  0.6935  -2.3006
H       -2.5872  1.4748  -0.4848
H       -3.7451  0.3110  -1.2534
H       -3.7383  -0.3200  1.2553
H       -2.5879  -1.4783  0.4697
H       -1.4265  0.7503  1.6628
H       -1.3980  -0.7950  2.1941
H       1.3932  -0.8469  -1.5308
H       1.4533  0.6932  -2.2942
H       3.7451  0.3173  -1.2536
H       2.5873  1.4791  -0.4854
H       2.5882  -1.4780  0.4703
H       3.7450  -0.3258  1.2487
H       1.3913  -0.7942  2.1878
H       1.4330  0.7510  1.6624
H       -1.3932  -0.8466  -1.5311
