27

Co      0.1111  0.0732  0.0050
Cl      -0.0096  -2.3214  -0.2264
Cl      -0.0099  2.2204  0.2164
N       -1.3131  0.1292  -1.3221
N       -1.3131  -0.1444  1.3271
N       1.2125  0.1135  -1.2552
N       1.2124  -0.1284  1.2603
C       -2.7917  0.3849  -0.6787
C       -2.7920  -0.3842  0.6736
C       2.7084  0.3819  -0.6799
C       2.7086  -0.3808  0.6749
H       -1.6345  0.8014  -2.1960
H       -2.5173  1.4485  -0.4311
H       -3.6367  0.4191  -1.4209
H       -3.6299  -0.4281  1.4228
H       -2.5180  -1.4520  0.4160
H       -1.5899  0.6399  1.9545
H       -1.5794  -0.9030  2.0895
H       1.4236  -0.7412  -1.7691
H       1.4529  0.7975  -2.0959
H       3.5194  0.4108  -1.4550
H       2.4399  1.4497  -0.4358
H       2.4407  -1.4486  0.4207
H       3.5193  -0.4194  1.4501
H       1.3975  -0.8985  1.9895
H       1.4635  0.6454  1.9008
H       -1.5565  -0.7362  -1.8229
