27

Co      0.0000  0.0000  0.0000
Cl      0.0002  -2.3668  -0.2185
Cl      -0.0001  2.3669  0.2186
N       -1.5831  0.1627  -1.4349
N       -1.5831  -0.1629  1.4348
N       1.5831  0.1627  -1.4349
N       1.5830  -0.1624  1.4349
C       -2.8036  0.4131  -0.6344
C       -2.8039  -0.4124  0.6343
C       2.8037  0.4130  -0.6345
C       2.8038  -0.4119  0.6346
H       -1.0774  0.9457  -1.9327
H       -2.9345  1.4547  -0.3854
H       -3.6819  0.0835  -1.1828
H       -3.6886  -0.0824  1.1762
H       -2.9351  -1.4540  0.3855
H       -1.2754  0.7678  1.8593
H       -1.0778  -0.9462  1.9322
H       1.2688  -0.7685  -1.8586
H       1.0776  0.9454  -1.9329
H       3.6818  0.0831  -1.1830
H       2.9346  1.4547  -0.3861
H       2.9354  -1.4536  0.3861
H       3.6818  -0.0815  1.1831
H       1.0777  -0.9454  1.9326
H       1.2683  0.7686  1.8590
H       -1.2689  -0.7682  -1.8590
