27

Co      0.0000  0.0000  0.0000
Cl      0.0002  -2.3136  -0.2217
Cl      -0.0001  2.3137  0.2218
N       -1.6566  0.1231  -1.4213
N       -1.6566  -0.1232  1.4212
N       1.6566  0.1287  -1.4212
N       1.6566  -0.1284  1.4213
C       -2.8514  0.4524  -0.6063
C       -2.8517  -0.4517  0.6062
C       2.8515  0.4524  -0.6064
C       2.8517  -0.4513  0.6065
H       -1.1479  0.8469  -1.9921
H       -2.8974  1.4884  -0.2926
H       -3.7581  0.2216  -1.1601
H       -3.7648  -0.2205  1.1534
H       -2.8981  -1.4877  0.2926
H       -1.3883  0.8441  1.7753
H       -1.1484  -0.8474  1.9916
H       1.3761  -0.8448  -1.7802
H       1.1481  0.8522  -1.9867
H       3.7580  0.2156  -1.1602
H       2.9032  1.4828  -0.2988
H       2.9040  -1.4817  0.2989
H       3.7580  -0.2140  1.1603
H       1.1483  -0.8523  1.9864
H       1.3756  0.8448  1.7806
H       -1.3817  -0.8445  -1.7750
