27

Co      -0.0736  -0.0732  -0.0050
Cl      0.0101  -2.3111  -0.2247
Cl      0.0097  2.4122  0.2349
N       -1.5176  0.1201  -1.3671
N       -1.5176  -0.1051  1.3619
N       1.5568  0.1208  -1.2836
N       1.5568  -0.1053  1.2786
C       -2.7703  0.4370  -0.6165
C       -2.7705  -0.4363  0.6215
C       2.8537  0.4468  -0.6019
C       2.8539  -0.4457  0.6070
H       -1.2992  0.8701  -1.9982
H       -2.7363  1.4861  -0.3465
H       -3.6433  0.2633  -1.2353
H       -3.6433  -0.2521  1.2405
H       -2.7369  -1.4854  0.3616
H       -1.5805  0.8163  1.7705
H       -1.3552  -0.7697  2.1038
H       1.6596  -0.7504  -1.7791
H       1.3583  0.8313  -1.9634
H       3.6923  0.2720  -1.2697
H       2.8401  1.4903  -0.3282
H       2.8409  -1.4892  0.3434
H       3.6923  -0.2603  1.2749
H       1.4140  -0.7304  2.0691
H       1.6187  0.8464  1.6482
H       -1.6211  -0.7207  -1.9014
