27

Co      -0.1111  0.0092  -0.0583
Cl      0.0101  -2.2337  -0.2048
Cl      0.0097  2.2277  0.2111
N       -1.5546  0.1065  -1.2940
N       -1.5349  -0.1005  1.2386
N       1.5375  0.1221  -1.2503
N       1.7534  -0.1156  1.4160
C       -2.7104  0.4072  -0.6038
C       -2.7106  -0.4151  0.6295
C       2.7202  0.3881  -0.5734
C       2.8676  -0.4397  0.6581
H       -0.9583  0.9827  -1.6889
H       -2.8905  1.4704  -0.4628
H       -3.6685  -0.0442  -0.9847
H       -3.6463  0.0858  1.0131
H       -2.9341  -1.4801  0.5156
H       -1.6358  0.6383  1.9372
H       -0.8666  -0.9575  1.6258
H       1.6708  -0.5944  -1.9900
H       0.9930  1.0155  -1.6414
H       3.6532  -0.0286  -1.0098
H       2.8946  1.4470  -0.4079
H       3.0856  -1.5048  0.5637
H       3.8961  0.1001  0.9204
H       1.2022  -0.9309  1.8877
H       1.9157  0.6564  2.0566
H       -1.6852  -0.6178  -2.0032
