27

Co      0.0000  0.0000  0.0000
Cl      0.0002  -2.2229  -0.2133
Cl      -0.0001  2.2229  0.2134
N       -1.4607  0.2055  -1.3604
N       -1.4607  -0.2056  1.3603
N       1.4607  0.2055  -1.3604
N       1.4607  -0.2052  1.3604
C       -2.6936  0.3692  -0.7086
C       -2.6939  -0.3685  0.7086
C       2.6937  0.3691  -0.7087
C       2.6939  -0.3680  0.7088
H       -1.4758  0.8253  -2.1965
H       -2.5625  1.4324  -0.4522
H       -3.5863  0.3010  -1.3360
H       -3.5863  -0.2999  1.3361
H       -2.5632  -1.4317  0.4522
H       -1.2649  0.8098  1.6324
H       -1.4762  -0.8258  2.1960
H       1.2652  -0.8104  -1.6317
H       1.4760  0.8250  -2.1900
H       3.5863  0.3072  -1.3404
H       2.5584  1.4325  -0.4528
H       2.5592  -1.4314  0.4529
H       3.5862  -0.3056  1.3406
H       1.4695  -0.8251  2.1897
H       1.2647  0.8105  1.6321
H       -1.2652  -0.8101  -1.6321
