27

Co      0.0000  0.0732  0.0050
Cl      0.0002  -2.3236  -0.2097
Cl      -0.0001  2.2226  0.1997
N       -1.3305  0.1866  -1.2684
N       -1.3305  -0.2019  1.2733
N       1.3305  0.1809  -1.2683
N       1.3305  -0.1958  1.2734
C       -2.8603  0.3488  -0.7219
C       -2.8605  -0.3481  0.7168
C       2.8604  0.3488  -0.7220
C       2.8605  -0.3477  0.7170
H       -1.3868  0.9101  -2.0135
H       -2.6912  1.4252  -0.5681
H       -3.7820  0.2042  -1.2903
H       -3.7751  -0.2132  1.2921
H       -2.6918  -1.4287  0.5530
H       -1.4205  0.5761  1.9212
H       -1.3317  -1.0116  1.9070
H       1.3927  -0.6727  -1.7835
H       1.3870  0.9042  -2.0194
H       3.7819  0.2094  -1.2904
H       2.6856  1.4351  -0.5631
H       2.6865  -1.4340  0.5480
H       3.7819  -0.2179  1.2855
H       1.3316  -1.0052  1.9130
H       1.4326  0.5768  1.9152
H       -1.3871  -0.6724  -1.7896
