27

Co      0.0000  -0.0732  -0.0050
Cl      0.0002  -2.2631  -0.2166
Cl      -0.0001  2.3642  0.2268
N       -1.6913  0.0887  -1.3649
N       -1.6913  -0.0737  1.3597
N       1.6913  0.0943  -1.3648
N       1.6913  -0.0789  1.3598
C       -2.7905  0.4462  -0.5927
C       -2.7907  -0.4455  0.5977
C       2.7906  0.4462  -0.5928
C       2.7907  -0.4451  0.5979
H       -1.0768  0.9543  -1.7627
H       -2.8936  1.5068  -0.3989
H       -3.8149  0.0774  -0.9271
H       -3.8149  -0.0662  0.9323
H       -2.8943  -1.5018  0.4141
H       -1.8417  0.7261  1.9493
H       -1.1327  -0.8539  1.8682
H       1.8767  -0.6307  -2.0855
H       1.0769  0.9597  -1.7639
H       3.8149  0.0647  -0.9273
H       2.8994  1.4969  -0.4052
H       2.9002  -1.4958  0.4203
H       3.8148  -0.0531  0.9325
H       1.1393  -0.8587  1.8696
H       1.8358  0.7268  1.9546
H       -1.8824  -0.6305  -2.0803
