27

Co      0.0000  0.0000  0.0000
Cl      0.0002  -2.3426  -0.2127
Cl      -0.0001  2.3427  0.2128
N       -1.3445  0.1893  -1.3854
N       -1.3445  -0.1894  1.3853
N       1.3445  0.1836  -1.3853
N       1.3445  -0.1833  1.3853
C       -2.7929  0.3520  -0.6994
C       -2.7931  -0.3513  0.6994
C       2.7930  0.3520  -0.6995
C       2.7931  -0.3509  0.6996
H       -1.2726  1.0084  -1.9685
H       -2.6969  1.4081  -0.4769
H       -3.6305  0.2176  -1.3786
H       -3.6305  -0.2165  1.3787
H       -2.6975  -1.4116  0.4769
H       -1.1840  0.6648  1.9346
H       -1.2731  -1.0090  1.9680
H       1.1899  -0.6654  -1.9283
H       1.2728  1.0025  -1.9743
H       3.6305  0.2229  -1.3787
H       2.6913  1.4180  -0.4719
H       2.6922  -1.4169  0.4719
H       3.6304  -0.2213  1.3789
H       1.2730  -1.0026  1.9740
H       1.1894  0.6655  1.9287
H       -1.1843  -0.6652  -1.9343
