27

Co      0.0000  0.0732  0.0050
Cl      0.0002  -2.3292  -0.2210
Cl      -0.0001  2.2282  0.2110
N       -1.3993  0.1321  -1.2374
N       -1.3993  -0.1474  1.2423
N       1.3993  0.1321  -1.2373
N       1.3992  -0.1469  1.2424
C       -2.7803  0.3947  -0.6477
C       -2.7806  -0.3940  0.6426
C       2.7804  0.3947  -0.6478
C       2.7805  -0.3936  0.6428
H       -1.5824  0.8023  -2.0790
H       -2.7693  1.4625  -0.4891
H       -3.5592  0.1709  -1.3704
H       -3.5524  -0.1799  1.3723
H       -2.7700  -1.4618  0.4740
H       -1.8272  0.5919  1.9212
H       -1.5273  -0.9039  1.9725
H       1.7938  -0.6885  -1.7892
H       1.5826  0.8020  -2.0792
H       3.5592  0.1705  -1.3706
H       2.7694  1.4625  -0.4898
H       2.7703  -1.4614  0.4746
H       3.5591  -0.1790  1.3657
H       1.5272  -0.9031  1.9729
H       1.8337  0.5926  1.9209
H       -1.7939  -0.6882  -1.7896
