27

Co      -0.0376  0.0092  -0.0583
Cl      0.0002  -2.2337  -0.2048
Cl      -0.0001  2.2277  0.2111
N       -1.4761  0.0935  -1.2948
N       -1.4564  -0.0875  1.2394
N       1.4197  0.1139  -1.3345
N       1.6356  -0.1075  1.5002
C       -2.8608  0.3983  -0.5593
C       -2.8610  -0.4062  0.5851
C       2.7872  0.3693  -0.5437
C       2.9346  -0.4210  0.6284
H       -1.0286  0.9676  -1.7382
H       -2.8850  1.4486  -0.3363
H       -3.8327  0.0889  -0.9870
H       -3.8105  -0.0473  1.0154
H       -2.9286  -1.4626  0.3890
H       -1.4405  0.6937  1.8860
H       -0.9369  -0.9424  1.6751
H       1.4314  -0.6204  -2.0662
H       1.0044  1.0445  -1.7202
H       3.7684  0.0897  -0.9735
H       2.7953  1.4197  -0.3058
H       2.9863  -1.4775  0.4617
H       4.0113  -0.0182  0.8841
H       1.2137  -0.9599  1.9665
H       1.6763  0.6824  2.1329
H       -1.4899  -0.6733  -1.9519
