27

Co      -0.1111  0.0000  0.0000
Cl      0.0101  -2.3136  -0.2217
Cl      0.0097  2.3137  0.2218
N       -1.5791  0.1221  -1.3675
N       -1.5791  -0.1222  1.3674
N       1.6798  0.1432  -1.4343
N       1.6798  -0.1429  1.4343
C       -2.8165  0.4441  -0.6339
C       -2.8168  -0.4434  0.6339
C       2.9000  0.4471  -0.6330
C       2.9001  -0.4460  0.6331
H       -1.1385  0.8179  -2.0030
H       -2.7637  1.5005  -0.3828
H       -3.8351  0.2244  -1.0414
H       -3.8350  -0.2233  1.0415
H       -2.7643  -1.4998  0.3828
H       -1.5321  0.7922  1.7808
H       -1.1389  -0.8185  2.0025
H       1.6596  -0.7881  -1.8391
H       1.3204  0.8269  -2.0979
H       3.9523  0.2263  -1.0076
H       2.8470  1.4979  -0.3850
H       2.8479  -1.4968  0.3850
H       3.9523  -0.2247  1.0077
H       1.3206  -0.8270  2.0976
H       1.6591  0.7882  1.8395
H       -1.5323  -0.7926  -1.7804
