27

Co      -0.0736  0.0000  0.0000
Cl      0.0101  -2.3724  -0.2297
Cl      0.0097  2.3725  0.2298
N       -1.6927  0.1244  -1.5009
N       -1.5749  -0.1246  1.3903
N       1.6142  0.1251  -1.3070
N       1.7319  -0.1248  1.4175
C       -2.7382  0.4205  -0.5903
C       -2.6648  -0.3977  0.5609
C       2.7480  0.4082  -0.5463
C       2.8218  -0.4292  0.5758
H       -1.2286  0.8631  -2.0668
H       -2.8295  1.4608  -0.3153
H       -3.7306  0.1093  -0.9940
H       -3.6048  -0.1229  1.0463
H       -2.7566  -1.4337  0.2637
H       -1.2894  0.8137  1.7986
H       -1.0817  -0.8931  1.9117
H       1.3213  -0.8438  -1.6760
H       1.1403  0.8538  -1.8774
H       3.6471  0.1327  -1.0874
H       2.8597  1.4387  -0.2454
H       2.9342  -1.4597  0.2970
H       3.7796  -0.1164  1.0287
H       1.2877  -0.8244  2.0317
H       1.4681  0.8659  1.7426
H       -1.4301  -0.8362  -1.8645
