27

Co      0.0000  0.0732  0.0050
Cl      0.0002  -2.2734  -0.2184
Cl      -0.0001  2.1724  0.2084
N       -1.4244  0.1386  -1.3618
N       -1.4244  -0.1539  1.3667
N       1.4245  0.1385  -1.3617
N       1.4244  -0.1534  1.3668
C       -2.7346  0.3559  -0.6358
C       -2.7348  -0.3552  0.6307
C       2.7347  0.3558  -0.6359
C       2.7348  -0.3547  0.6310
H       -1.4196  0.8658  -2.0760
H       -2.5991  1.4106  -0.3712
H       -3.6472  0.2656  -1.2289
H       -3.6471  -0.2746  1.2240
H       -2.5998  -1.4099  0.3561
H       -1.3312  0.6907  1.9164
H       -1.3645  -0.9673  1.9695
H       1.2910  -0.7873  -1.7844
H       1.4198  0.8655  -2.0763
H       3.6471  0.2652  -1.2291
H       2.5992  1.4106  -0.3719
H       2.6001  -1.4095  0.3567
H       3.6471  -0.2737  1.2242
H       1.3644  -0.9666  1.9699
H       1.3309  0.6914  1.9160
H       -1.2911  -0.7870  -1.7848
