27

Co      -0.0376  0.0000  0.0000
Cl      0.0002  -2.2894  -0.2159
Cl      -0.0001  2.2895  0.2160
N       -1.4842  0.1376  -1.2916
N       -1.4842  -0.1378  1.2915
N       1.5457  0.1580  -1.4418
N       1.5456  -0.1578  1.4418
C       -2.7596  0.4226  -0.6204
C       -2.7598  -0.4219  0.6203
C       2.7597  0.4158  -0.6341
C       2.7598  -0.4147  0.6342
H       -0.9370  0.8828  -1.8273
H       -2.9007  1.4643  -0.3603
H       -3.5770  0.1002  -1.2411
H       -3.5838  -0.0991  1.2344
H       -2.9014  -1.4635  0.3604
H       -1.1634  0.8167  1.6723
H       -0.9374  -0.8834  1.8268
H       1.2456  -0.7832  -1.8525
H       1.0601  0.9303  -1.9573
H       3.6453  0.0930  -1.1729
H       2.8803  1.4575  -0.3815
H       2.8812  -1.4564  0.3815
H       3.6452  -0.0914  1.1731
H       1.0603  -0.9304  1.9569
H       1.2451  0.7833  1.8529
H       -1.1568  -0.8170  -1.6720
