27

Co      0.0340  0.0577  -0.0058
Cl      -1.0901  1.6389  -1.2279
Cl      1.0943  1.3392  1.2902
C       2.5681  -0.6722  -0.8084
C       2.1263  -1.9844  -0.0714
C       -2.4059  -1.2627  -0.4788
C       -2.3431  -1.1216  1.0794
N       1.3561  0.0978  -1.2152
N       1.0679  -1.5525  0.8885
N       -1.0454  -1.4532  -1.1239
N       -1.4618  0.0306  1.4715
H       3.1059  -2.4714  0.1888
H       1.5598  -2.6499  -0.7125
H       -2.6750  -0.3143  -0.9995
H       -3.2607  -2.0259  -0.5557
H       1.7086  1.0285  -1.5195
H       1.2941  -0.3430  -2.1592
H       -2.0525  0.8680  1.5134
H       -1.2048  -0.0976  2.4444
H       -1.8671  -1.9580  1.5868
H       -3.4112  -1.1111  1.3793
H       0.6103  -2.3734  1.2577
H       1.7156  -1.3507  1.6906
H       3.3677  -1.0279  -1.4716
H       2.9771  0.0687  -0.1199
H       -0.9270  -2.4772  -1.0897
H       -1.2064  -1.3172  -2.1312
