27

Co      -0.0010  -0.0005  0.0135
Cl      -1.0964  1.6515  -1.2342
Cl      1.1006  1.3587  1.3029
C       2.5252  -0.7032  -0.7445
C       2.0512  -1.8301  -0.0760
C       -2.3803  -1.2310  -0.4448
C       -2.3321  -1.1311  1.0563
N       1.4940  0.0867  -1.3741
N       1.1259  -1.5936  0.8692
N       -1.0349  -1.3958  -1.0501
N       -1.4916  0.0267  1.4511
H       2.9308  -2.3734  0.2719
H       1.6076  -2.4617  -0.8335
H       -2.7748  -0.3015  -0.8316
H       -3.0552  -2.0324  -0.7432
H       1.7704  1.0404  -1.4956
H       1.2595  -0.2587  -2.2880
H       -1.9634  0.9091  1.4158
H       -1.1158  -0.0696  2.3726
H       -1.9090  -2.0142  1.5168
H       -3.3598  -1.0427  1.4098
H       0.6314  -2.4440  1.0837
H       1.5026  -1.2429  1.7364
H       3.1452  -1.1871  -1.5038
H       3.1549  -0.0608  -0.1574
H       -0.7118  -2.3397  -0.9599
H       -1.0720  -1.1689  -2.0271
