27

Co      -0.0028  -0.0496  -0.0028
Cl      -1.1077  1.6561  -1.2348
Cl      1.1765  1.4752  1.3826
C       2.6300  -0.6996  -0.8127
C       2.1320  -1.9405  -0.0949
C       -2.5275  -1.3104  -0.4500
C       -2.3871  -1.1331  1.0522
N       1.4570  0.0859  -1.2779
N       1.0834  -1.5142  0.8840
N       -1.1519  -1.3479  -1.0565
N       -1.4275  -0.0343  1.3055
H       2.9401  -2.4547  0.4009
H       1.6768  -2.6342  -0.7885
H       -3.0448  -0.4735  -0.8839
H       -3.0742  -2.2113  -0.6884
H       1.6698  1.0692  -1.2993
H       1.1858  -0.1608  -2.2096
H       -1.8604  0.8671  1.1953
H       -1.0726  -0.0509  2.2422
H       -1.9999  -2.0298  1.5095
H       -3.3433  -0.9263  1.5022
H       0.5873  -2.3083  1.2348
H       1.5196  -1.0651  1.6711
H       3.2685  -0.9606  -1.6404
H       3.1913  -0.0766  -0.1392
H       -0.8141  -2.2900  -1.0917
H       -1.2101  -1.0094  -1.9985
