27

Co      0.0206  -0.0028  -0.0649
Cl      -1.0543  1.5512  -1.1606
Cl      1.1944  1.5170  1.4143
C       2.7122  -0.6874  -0.8129
C       2.1943  -2.0824  -0.0645
C       -2.6173  -1.3043  -0.4595
C       -2.4487  -1.2475  1.0831
N       1.3845  0.1378  -1.3407
N       0.9817  -1.5054  0.8277
N       -1.1489  -1.2905  -0.8974
N       -1.4673  -0.0394  1.2416
H       2.7255  -2.6661  0.7813
H       1.8830  -2.7688  -0.8724
H       -3.1353  -0.3520  -0.6645
H       -3.0255  -2.1503  -1.1387
H       1.4542  1.1610  -1.2451
H       0.8335  -0.0408  -2.2079
H       -1.8463  0.8728  0.9980
H       -0.9733  0.0818  2.1258
H       -2.0706  -2.1783  1.4766
H       -3.3126  -0.9249  1.6900
H       0.2190  -2.1571  1.0902
H       1.1578  -0.8905  1.6640
H       3.1602  -0.6655  -1.8906
H       3.3560  -0.1181  -0.1464
H       -0.5416  -2.1300  -0.6948
H       -1.0158  -1.0207  -1.8715
