27

Co      0.0101  0.0539  0.0316
Cl      -1.0820  1.6055  -1.2154
Cl      1.1508  1.4167  1.3416
C       2.6793  -0.7204  -0.8397
C       2.1751  -1.9777  -0.0897
C       -2.5432  -1.3517  -0.4916
C       -2.3852  -1.1207  1.0456
N       1.4164  0.0364  -1.1580
N       1.0560  -1.4127  0.7542
N       -1.1861  -1.4329  -1.1400
N       -1.4190  -0.0185  1.3640
H       3.0678  -2.4698  0.3097
H       1.6409  -2.6737  -0.7227
H       -2.9321  -0.4982  -1.0552
H       -3.2977  -2.2059  -0.4809
H       1.7622  0.9710  -1.4843
H       1.3234  -0.4123  -2.0858
H       -1.9811  0.8359  1.4136
H       -1.1758  -0.1527  2.3434
H       -1.9429  -1.9649  1.5680
H       -3.4009  -1.0165  1.4123
H       0.5771  -2.2021  1.1624
H       1.7058  -1.1813  1.5402
H       3.4176  -1.0913  -1.5492
H       3.1516  0.0095  -0.1817
H       -1.0473  -2.4518  -1.2066
H       -1.3562  -1.2050  -2.1167
