27

Co      -0.0259  0.0081  0.0596
Cl      -1.1225  1.6780  -1.2652
Cl      1.1305  1.3931  1.3172
C       2.6179  -0.7668  -0.8318
C       2.1104  -1.7845  -0.1426
C       -2.4376  -1.2658  -0.4090
C       -2.3692  -1.0890  1.0242
N       1.6447  0.0031  -1.3052
N       1.1391  -1.5395  0.8421
N       -1.1359  -1.4244  -1.1141
N       -1.5228  -0.0408  1.4439
H       3.0309  -2.1489  0.3261
H       1.7419  -2.5883  -0.7679
H       -2.9898  -0.4999  -0.9242
H       -3.0112  -2.2017  -0.4794
H       1.9402  0.9571  -1.3855
H       1.3404  -0.2745  -2.2159
H       -1.9532  0.8599  1.3952
H       -1.2074  -0.1656  2.3907
H       -1.9694  -2.0063  1.4350
H       -3.3869  -1.0087  1.3893
H       0.7102  -2.4452  1.0339
H       1.5343  -1.2148  1.7126
H       3.2890  -1.2109  -1.5697
H       3.2384  -0.1949  -0.1658
H       -0.8640  -2.3897  -1.1928
H       -1.2437  -1.0644  -2.0430
