27

Co      -0.0010  0.0074  0.0137
Cl      -1.1225  1.6717  -1.2590
Cl      1.1305  1.3962  1.3235
C       2.6775  -0.7209  -0.8367
C       2.1601  -1.9463  -0.0884
C       -2.4727  -1.2936  -0.4361
C       -2.4252  -1.1491  1.0822
N       1.5385  0.0975  -1.3423
N       1.1148  -1.5750  0.9229
N       -1.1061  -1.3565  -1.0686
N       -1.5282  -0.0136  1.4489
H       2.9836  -2.4681  0.3714
H       1.6935  -2.6260  -0.7841
H       -2.9526  -0.4272  -0.8595
H       -3.0543  -2.1627  -0.7051
H       1.7808  1.0688  -1.3857
H       1.2654  -0.1657  -2.2705
H       -1.9850  0.8759  1.3867
H       -1.1674  -0.0915  2.3843
H       -2.0349  -2.0399  1.5524
H       -3.4350  -1.0054  1.4482
H       0.6000  -2.3951  1.1917
H       1.5312  -1.1916  1.7537
H       3.3164  -1.0418  -1.6455
H       3.2586  -0.0968  -0.1819
H       -0.7628  -2.2966  -1.1090
H       -1.1775  -1.0116  -2.0064
