27

Co      0.0037  0.0038  -0.0119
Cl      -1.0660  1.5954  -1.1945
Cl      1.1310  1.4054  1.3473
C       2.5958  -0.6545  -0.8005
C       2.0532  -1.8981  -0.1024
C       -2.4260  -1.2450  -0.4581
C       -2.3431  -1.1335  1.0623
N       1.4653  0.0974  -1.4045
N       1.0262  -1.5459  0.9292
N       -1.0640  -1.4165  -1.0802
N       -1.4805  0.0200  1.4297
H       2.8647  -2.4664  0.3239
H       1.5635  -2.5310  -0.8322
H       -2.8322  -0.3245  -0.8600
H       -3.0926  -2.0574  -0.7335
H       1.6721  1.0684  -1.5344
H       1.1965  -0.2654  -2.3047
H       -1.9524  0.9024  1.3551
H       -1.1154  -0.0346  2.3575
H       -1.9000  -2.0229  1.4878
H       -3.3442  -1.0470  1.4691
H       0.4940  -2.3566  1.1826
H       1.4438  -1.1885  1.7680
H       3.3219  -0.9478  -1.5451
H       3.0762  -0.0004  -0.0953
H       -0.7589  -2.3694  -1.0304
H       -1.1041  -1.1542  -2.0461
