27

Co      -0.0033  -0.0326  -0.0283
Cl      -1.0898  1.6344  -1.2191
Cl      1.2382  1.5910  1.4625
C       2.7611  -0.6929  -0.8652
C       2.2202  -2.0943  -0.0441
C       -2.6192  -1.3957  -0.4952
C       -2.4634  -1.1968  1.0866
N       1.4000  0.1334  -1.3370
N       0.9555  -1.5356  0.8271
N       -1.1922  -1.3944  -1.0415
N       -1.4132  -0.0386  1.3139
H       2.8814  -2.6979  0.5980
H       1.7784  -2.7352  -0.8045
H       -3.0578  -0.4741  -0.8744
H       -3.2091  -2.2351  -0.8683
H       1.5624  1.1298  -1.3736
H       1.1250  -0.1339  -2.2624
H       -1.8548  0.8618  1.2634
H       -0.9991  -0.0813  2.2337
H       -2.1181  -2.0720  1.6152
H       -3.3960  -0.8890  1.5438
H       0.2929  -2.2558  1.0970
H       1.3268  -1.1446  1.6811
H       3.3253  -0.8820  -1.7761
H       3.3282  0.0012  -0.2475
H       -0.7943  -2.3181  -1.0228
H       -1.2015  -1.0969  -2.0017
