27

Co      0.0028  0.0394  0.0079
Cl      -1.0485  1.5370  -1.1911
Cl      1.1225  1.3932  1.3179
C       2.6828  -0.7199  -0.9044
C       2.1495  -1.9225  -0.0376
C       -2.5018  -1.3441  -0.4542
C       -2.4652  -1.1361  1.0875
N       1.5023  0.1178  -1.2950
N       0.9705  -1.4612  0.7923
N       -1.1059  -1.2190  -1.0140
N       -1.4597  -0.0564  1.3786
H       3.0701  -2.3468  0.3810
H       1.6639  -2.6797  -0.6399
H       -2.9770  -0.5497  -1.0288
H       -3.0895  -2.2692  -0.5318
H       1.8669  1.0573  -1.4550
H       1.4900  -0.2034  -2.2874
H       -2.0054  0.8014  1.4102
H       -1.2106  -0.1723  2.3526
H       -2.0900  -1.9839  1.6638
H       -3.5014  -0.9653  1.3905
H       0.4953  -2.3006  1.0921
H       1.5493  -1.2788  1.6438
H       3.3892  -1.2514  -1.5887
H       3.2247  0.0194  -0.3194
H       -0.8788  -2.2023  -1.1307
H       -1.2772  -0.9397  -1.9757
