27

Co      0.1107  0.0200  0.0189
Cl      -1.0666  1.5516  -1.1918
Cl      1.0894  1.3317  1.2800
C       2.5489  -0.6644  -0.8062
C       2.0700  -1.9035  -0.0683
C       -2.5317  -1.3291  -0.4497
C       -2.3862  -1.0959  1.0537
N       1.3772  0.1334  -1.2064
N       1.0737  -1.4056  0.9066
N       -1.1908  -1.3446  -1.1663
N       -1.4275  -0.0068  1.3425
H       2.8794  -2.4121  0.4128
H       1.5767  -2.6041  -0.7350
H       -3.0997  -0.5279  -0.8853
H       -3.0750  -2.2501  -0.6118
H       1.6190  1.0965  -1.3414
H       0.9954  -0.1877  -2.0857
H       -1.8525  0.8996  1.2132
H       -1.1234  -0.0363  2.2906
H       -2.0309  -1.9901  1.5421
H       -3.3619  -0.8713  1.4672
H       0.4794  -2.1457  1.2311
H       1.5325  -1.0032  1.7004
H       3.1498  -0.9109  -1.6740
H       3.1474  -0.0618  -0.1439
H       -0.8997  -2.2949  -1.3740
H       -1.3319  -0.8546  -2.0575
