27

Co      0.0585  0.0743  0.1073
Cl      -1.0642  1.5789  -1.2230
Cl      1.0307  1.2496  1.2118
C       2.5366  -0.6915  -0.7607
C       2.0112  -1.7752  -0.0692
C       -2.4561  -1.3320  -0.4725
C       -2.3429  -1.0728  1.0048
N       1.4829  0.0700  -1.3346
N       1.0735  -1.4482  0.8116
N       -1.1123  -1.3500  -1.0767
N       -1.3580  -0.0296  1.3796
H       2.8269  -2.3442  0.3385
H       1.5560  -2.4115  -0.8226
H       -3.0114  -0.5493  -0.9470
H       -2.9888  -2.2621  -0.6222
H       1.7603  1.0066  -1.6161
H       1.1341  -0.3991  -2.1768
H       -1.7708  0.8965  1.4343
H       -1.0003  -0.2258  2.2970
H       -2.0363  -1.9842  1.5168
H       -3.3269  -0.8201  1.3875
H       0.4812  -2.2625  0.9546
H       1.4609  -1.1948  1.7205
H       3.1116  -1.2128  -1.5521
H       3.2211  -0.0586  -0.2069
H       -0.7724  -2.2769  -1.1274
H       -1.1643  -0.9803  -2.0037
