27

Co      -0.1045  -0.0525  -0.0170
Cl      -1.0690  1.5674  -1.1914
Cl      1.2348  1.5483  1.4425
C       2.8977  -0.7172  -0.8763
C       2.2321  -2.0655  -0.0723
C       -2.6491  -1.3976  -0.4824
C       -2.5022  -1.2062  1.0882
N       1.5415  0.1032  -1.3921
N       1.0264  -1.4100  0.8183
N       -1.1853  -1.1256  -0.9267
N       -1.4260  -0.0577  1.2329
H       2.8197  -2.7931  0.5618
H       1.7029  -2.6339  -0.8513
H       -3.2450  -0.5736  -0.8699
H       -3.0157  -2.3510  -0.9005
H       1.6788  1.1156  -1.3311
H       1.3689  -0.1113  -2.3627
H       -1.8729  0.8443  1.1661
H       -0.9934  -0.0570  2.1460
H       -2.1410  -2.0849  1.6139
H       -3.4078  -0.8689  1.5947
H       0.4934  -2.1245  1.3088
H       1.4758  -0.8376  1.5377
H       3.4802  -0.9619  -1.7618
H       3.4668  -0.0360  -0.2516
H       -0.6724  -2.0097  -0.9584
H       -1.1697  -0.7527  -1.8590
