27

Co      -0.0344  0.0160  0.0153
Cl      -1.1313  1.6646  -1.2365
Cl      1.2093  1.5186  1.4047
C       2.8637  -0.7458  -0.9159
C       2.2733  -2.0641  -0.1330
C       -2.6931  -1.3203  -0.4555
C       -2.4705  -1.2441  1.0446
N       1.5762  0.0406  -1.3115
N       1.0354  -1.5123  0.8528
N       -1.2117  -1.2839  -0.8420
N       -1.4779  -0.1191  1.1678
H       2.9873  -2.5554  0.5429
H       1.8570  -2.8220  -0.7925
H       -3.2105  -0.4772  -0.8891
H       -3.1405  -2.2490  -0.8030
H       1.7595  1.0406  -1.3121
H       1.2832  -0.1770  -2.2419
H       -1.9671  0.7468  0.9663
H       -1.1559  -0.0135  2.1266
H       -1.9818  -2.1644  1.3828
H       -3.3420  -1.0642  1.6860
H       0.5053  -2.2941  1.2026
H       1.4821  -1.0927  1.6499
H       3.5538  -0.8653  -1.7601
H       3.3458  -0.1219  -0.1633
H       -0.8028  -2.2075  -0.6700
H       -1.1378  -1.1176  -1.8461
