27

Co      0.0594  0.0273  0.0974
Cl      -1.1007  1.6176  -1.2415
Cl      1.0627  1.2892  1.2367
C       2.6281  -0.6737  -0.8557
C       2.0808  -1.8645  -0.0645
C       -2.5055  -1.3347  -0.4740
C       -2.3394  -1.0650  1.0287
N       1.5025  0.1523  -1.3217
N       1.0867  -1.4929  0.9901
N       -1.1852  -1.4129  -1.2130
N       -1.4035  0.0291  1.4041
H       2.8925  -2.4416  0.3394
H       1.5370  -2.5106  -0.7544
H       -3.0620  -0.5416  -0.9415
H       -3.0899  -2.2531  -0.5706
H       1.7346  1.1153  -1.4333
H       1.1385  -0.1669  -2.2068
H       -1.8297  0.9417  1.3722
H       -1.0720  -0.0962  2.3399
H       -1.9567  -1.9578  1.5017
H       -3.3191  -0.8848  1.4488
H       0.5212  -2.3045  1.1914
H       1.5264  -1.1929  1.8488
H       3.2146  -1.0614  -1.6915
H       3.2806  -0.0614  -0.2485
H       -0.9063  -2.3680  -1.4275
H       -1.2879  -0.8934  -2.0904
