27

Co      0.0335  0.0313  -0.0102
Cl      -1.0225  1.5116  -1.1716
Cl      1.0821  1.3205  1.2869
C       2.4737  -0.6951  -0.7635
C       1.9913  -1.7574  -0.1411
C       -2.3588  -1.2519  -0.3913
C       -2.3855  -1.0567  1.0497
N       1.4790  0.0056  -1.2527
N       1.0553  -1.3865  0.7885
N       -1.0465  -1.2759  -1.0900
N       -1.4862  -0.0623  1.4477
H       2.8920  -2.1066  0.3616
H       1.6251  -2.5687  -0.7609
H       -2.9773  -0.5306  -0.9069
H       -2.8327  -2.2300  -0.4893
H       1.7616  0.9510  -1.4375
H       1.1485  -0.3656  -2.1324
H       -1.8850  0.8584  1.3854
H       -1.1732  -0.1769  2.3861
H       -2.0889  -1.9844  1.5263
H       -3.4264  -0.8838  1.3337
H       0.5776  -2.2096  1.0908
H       1.4840  -0.9857  1.5965
H       3.2128  -1.0197  -1.4855
H       2.9887  -0.1193  -0.0228
H       -0.7434  -2.2206  -1.2332
H       -1.2192  -0.8700  -2.0041
