27

Co      -0.0616  -0.0925  -0.0687
Cl      -1.1052  1.6704  -1.2487
Cl      1.2147  1.5368  1.4309
C       2.6486  -0.7294  -0.7870
C       2.1819  -1.9986  -0.1060
C       -2.4911  -1.3263  -0.4106
C       -2.4865  -1.1535  1.0960
N       1.4444  0.0410  -1.2349
N       1.0979  -1.4989  0.8015
N       -1.0657  -1.1428  -0.9112
N       -1.4386  -0.1169  1.2915
H       2.9808  -2.4567  0.4720
H       1.7901  -2.7396  -0.7870
H       -3.0978  -0.5524  -0.8648
H       -2.8566  -2.3061  -0.7465
H       1.6507  1.0363  -1.1604
H       1.2532  -0.1254  -2.2159
H       -1.8326  0.8065  1.1992
H       -1.0396  -0.1337  2.2159
H       -2.2234  -2.0645  1.6328
H       -3.4551  -0.8146  1.4607
H       0.6687  -2.2739  1.3044
H       1.5439  -0.9010  1.5115
H       3.3055  -0.9133  -1.6230
H       3.1679  -0.1123  -0.0781
H       -0.6118  -2.0434  -0.9283
H       -1.1373  -0.8272  -1.8607
