27

Co      -0.0753  -0.0402  -0.0475
Cl      -1.0727  1.5711  -1.1951
Cl      1.2385  1.5483  1.4499
C       2.8529  -0.7258  -0.9094
C       2.2242  -2.0333  -0.1326
C       -2.5764  -1.3501  -0.4275
C       -2.5141  -1.1674  1.1046
N       1.5739  0.0568  -1.3271
N       1.0282  -1.4107  0.8579
N       -1.1804  -1.2236  -1.0513
N       -1.5413  -0.0640  1.3657
H       2.9136  -2.5642  0.5388
H       1.7528  -2.7537  -0.7836
H       -3.1928  -0.5741  -0.8800
H       -2.9939  -2.3204  -0.6901
H       1.7361  1.0619  -1.2686
H       1.3308  -0.1306  -2.2868
H       -1.9754  0.8357  1.2440
H       -1.1747  -0.0677  2.3062
H       -2.1500  -2.0629  1.5828
H       -3.4819  -0.9441  1.5165
H       0.5380  -2.1625  1.3304
H       1.4990  -0.8588  1.5725
H       3.5613  -0.8427  -1.7365
H       3.3143  -0.1035  -0.1431
H       -0.7776  -2.1498  -1.2207
H       -1.2854  -0.7674  -1.9529
