27

Co      0.0446  0.0015  0.0838
Cl      -1.1401  1.6956  -1.2769
Cl      1.1158  1.3843  1.3055
C       2.7225  -0.7057  -0.8980
C       2.1346  -1.9057  -0.0679
C       -2.5140  -1.3284  -0.4753
C       -2.4153  -1.1419  1.0709
N       1.5455  0.0947  -1.3378
N       1.0177  -1.4938  0.8646
N       -1.1437  -1.4150  -1.0998
N       -1.4853  -0.0125  1.4182
H       3.0386  -2.4570  0.2426
H       1.5470  -2.5501  -0.7209
H       -2.8672  -0.4460  -1.0243
H       -3.2777  -2.1616  -0.5209
H       1.8720  1.0359  -1.5849
H       1.5010  -0.3156  -2.2917
H       -2.0487  0.8296  1.3789
H       -1.3021  -0.0923  2.4247
H       -1.9581  -1.9811  1.5940
H       -3.4545  -1.0766  1.4052
H       0.5278  -2.3518  1.0990
H       1.6243  -1.3971  1.7436
H       3.4654  -1.2599  -1.5446
H       3.2387  0.0431  -0.3006
H       -1.0306  -2.4443  -1.2373
H       -1.2852  -1.1088  -2.0504
