27

Co      -0.0723  -0.0373  -0.0406
Cl      -1.1025  1.6297  -1.2095
Cl      1.2632  1.5749  1.4725
C       2.7287  -0.7511  -0.7757
C       2.2080  -2.0086  -0.1475
C       -2.6492  -1.3525  -0.4490
C       -2.4408  -1.1806  1.0381
N       1.4934  -0.0104  -1.2117
N       1.1860  -1.4317  0.7927
N       -1.2517  -1.2830  -0.9986
N       -1.4483  -0.0844  1.1945
H       2.9643  -2.5720  0.4017
H       1.7407  -2.6773  -0.8556
H       -3.2373  -0.5512  -0.8801
H       -3.1061  -2.3017  -0.7047
H       1.7088  0.9798  -1.2545
H       1.2587  -0.2734  -2.1439
H       -1.8976  0.8130  1.0909
H       -1.0607  -0.0742  2.1245
H       -2.0279  -2.0821  1.4692
H       -3.3525  -0.9483  1.5701
H       0.7663  -2.1819  1.3705
H       1.6913  -0.8006  1.4489
H       3.4065  -0.9025  -1.6092
H       3.2304  -0.1378  -0.0357
H       -0.8488  -2.2092  -0.9689
H       -1.2963  -1.0085  -1.9620
