27

Co      -0.0307  0.0190  0.0123
Cl      -1.1349  1.6682  -1.2401
Cl      1.2129  1.5223  1.4121
C       2.7746  -0.7836  -0.8323
C       2.2245  -1.9565  -0.1311
C       -2.6580  -1.3067  -0.4227
C       -2.4624  -1.2405  1.0327
N       1.6583  0.0398  -1.4045
N       1.1535  -1.5985  0.8665
N       -1.2457  -1.3620  -0.9181
N       -1.5585  -0.0853  1.2617
H       2.8845  -2.4711  0.5959
H       1.9266  -2.6892  -0.8902
H       -3.2585  -0.4508  -0.7160
H       -3.0412  -2.2245  -0.9263
H       1.8087  1.0460  -1.2993
H       1.1294  -0.1228  -2.2748
H       -1.9394  0.8246  1.0563
H       -1.0967  -0.0344  2.1605
H       -2.0338  -2.1954  1.3443
H       -3.3368  -1.0255  1.6560
H       0.5474  -2.3919  1.0440
H       1.3349  -1.0462  1.7321
H       3.2789  -0.9641  -1.7986
H       3.4733  -0.2680  -0.1638
H       -0.6837  -2.2243  -0.7419
H       -1.1251  -1.0792  -1.8821
