27

Co      -0.0880  -0.0653  -0.0441
Cl      -1.1295  1.7164  -1.2585
Cl      1.2443  1.5791  1.4631
C       2.8147  -0.7184  -0.8699
C       2.2460  -2.0841  -0.1560
C       -2.5108  -1.2816  -0.4425
C       -2.4443  -1.1923  1.0937
N       1.5056  0.0131  -1.3017
N       1.0173  -1.5261  0.8395
N       -1.0816  -1.3581  -0.9662
N       -1.5093  -0.0626  1.3640
H       2.9598  -2.5889  0.5068
H       1.8228  -2.8058  -0.8363
H       -2.9484  -0.3851  -0.8684
H       -3.0759  -2.1420  -0.7868
H       1.6417  1.0220  -1.2872
H       1.2613  -0.2114  -2.2504
H       -1.9666  0.8218  1.2230
H       -1.1413  -0.0345  2.3089
H       -2.0241  -2.0957  1.5086
H       -3.4039  -1.0387  1.5430
H       0.5304  -2.2984  1.2688
H       1.4705  -1.0234  1.5914
H       3.5680  -0.7499  -1.6825
H       3.2019  -0.0805  -0.0604
H       -0.7130  -2.2989  -0.8738
H       -1.0874  -1.1371  -1.9475
