27

Co      0.1092  0.0475  0.0010
Cl      -1.0773  1.6004  -1.1999
Cl      1.1100  1.3771  1.3229
C       2.4525  -0.6850  -0.7207
C       2.0198  -1.8360  -0.0728
C       -2.4638  -1.2719  -0.4514
C       -2.3506  -1.1416  1.0458
N       1.3980  0.0836  -1.3061
N       1.1026  -1.5384  0.8390
N       -1.1435  -1.5160  -1.1404
N       -1.5002  0.0149  1.4286
H       2.9020  -2.3502  0.2992
H       1.5883  -2.4875  -0.8198
H       -2.8388  -0.3257  -0.8280
H       -3.2119  -2.0472  -0.6929
H       1.6990  1.0212  -1.5759
H       1.0615  -0.3649  -2.1564
H       -1.9723  0.8942  1.3532
H       -1.1710  -0.0646  2.3664
H       -1.9350  -2.0243  1.5049
H       -3.3702  -1.0407  1.4154
H       0.4957  -2.3365  0.9994
H       1.4761  -1.2507  1.7351
H       3.0768  -1.0965  -1.4996
H       3.0619  -0.0422  -0.1097
H       -0.8909  -2.4840  -1.1073
H       -1.2305  -1.2622  -2.1111
