27

Co      -0.0686  -0.0335  -0.0524
Cl      -1.0802  1.6132  -1.1885
Cl      1.2370  1.5410  1.4593
C       2.6519  -0.7019  -0.7212
C       2.1196  -1.9581  -0.1767
C       -2.5477  -1.2763  -0.4423
C       -2.3570  -1.1589  1.0264
N       1.4875  0.0039  -1.3365
N       1.1766  -1.5018  0.8914
N       -1.1884  -1.4091  -1.0649
N       -1.4749  -0.0190  1.2993
H       2.7653  -2.5837  0.4591
H       1.7157  -2.5797  -0.9767
H       -3.1335  -0.4078  -0.7311
H       -3.0077  -2.1642  -0.8747
H       1.5742  1.0174  -1.3170
H       0.9777  -0.2602  -2.1856
H       -1.8310  0.9153  1.1495
H       -0.9586  -0.0127  2.1728
H       -1.9453  -2.1048  1.3604
H       -3.2547  -0.9556  1.5969
H       0.6490  -2.2333  1.3205
H       1.4634  -0.7620  1.6004
H       3.2810  -0.6960  -1.6446
H       3.1762  -0.1786  0.0750
H       -0.6701  -2.2863  -0.9438
H       -1.1347  -1.0839  -2.0100
