27

Co      0.0043  -0.0117  0.0196
Cl      -1.0759  1.6155  -1.2344
Cl      1.0747  1.3169  1.2719
C       2.5834  -0.6407  -0.8436
C       2.0559  -1.8993  -0.0504
C       -2.3676  -1.3017  -0.4687
C       -2.3685  -1.0638  1.0881
N       1.4296  0.1489  -1.3353
N       1.0237  -1.5205  0.9655
N       -1.0085  -1.2794  -1.1203
N       -1.4004  0.0119  1.4676
H       3.0200  -2.4553  0.1549
H       1.4212  -2.5182  -0.6971
H       -2.7934  -0.4771  -1.0455
H       -3.0462  -2.1832  -0.4993
H       1.7443  1.0927  -1.5203
H       1.4422  -0.2271  -2.3228
H       -1.9258  0.8882  1.5434
H       -1.1274  -0.1582  2.4299
H       -2.0023  -1.9064  1.6795
H       -3.4420  -0.9302  1.3253
H       0.6214  -2.3758  1.3336
H       1.6766  -1.3033  1.7590
H       3.3847  -1.1342  -1.4645
H       3.0260  0.1072  -0.1992
H       -0.8383  -2.2801  -1.2935
H       -1.2032  -0.9364  -2.0551
