27

Co      0.0806  0.0342  0.0558
Cl      -1.0531  1.5721  -1.1973
Cl      1.0909  1.3601  1.2888
C       2.5689  -0.6585  -0.8610
C       2.0737  -1.8982  -0.0491
C       -2.4763  -1.3236  -0.5008
C       -2.3265  -1.0793  1.0379
N       1.3399  0.1047  -1.1957
N       0.9083  -1.4096  0.7736
N       -1.1210  -1.4590  -1.1500
N       -1.3443  -0.0002  1.3645
H       2.9808  -2.3391  0.3605
H       1.5741  -2.6333  -0.6709
H       -2.8319  -0.4612  -1.0724
H       -3.2664  -2.1612  -0.4727
H       1.6674  1.0360  -1.5337
H       1.2040  -0.3582  -2.1100
H       -1.8826  0.8619  1.3735
H       -1.1425  -0.1137  2.3520
H       -1.9103  -1.9273  1.5709
H       -3.3442  -0.9540  1.3930
H       0.3413  -2.2115  1.0063
H       1.4978  -1.3247  1.6661
H       3.2812  -1.0986  -1.5672
H       3.0727  0.0854  -0.2482
H       -1.0309  -2.4874  -1.2487
H       -1.2833  -1.1982  -2.1176
