27

Co      -0.0790  -0.0569  -0.0308
Cl      -1.0690  1.5674  -1.1914
Cl      1.2348  1.5446  1.4425
C       2.7940  -0.7659  -0.7634
C       2.2052  -1.9907  -0.0852
C       -2.6106  -1.3767  -0.4424
C       -2.5013  -1.2062  1.0834
N       1.5394  0.0547  -1.3425
N       1.1370  -1.3864  0.7112
N       -1.2046  -1.1812  -0.9802
N       -1.4987  -0.0388  1.3003
H       2.6985  -2.6941  0.7100
H       1.8457  -2.5815  -0.9491
H       -3.2863  -0.5365  -0.6787
H       -2.9014  -2.3196  -1.0386
H       1.6366  1.0734  -1.2231
H       1.0837  -0.1229  -2.2348
H       -1.8299  0.9072  1.1711
H       -0.9592  -0.0415  2.1681
H       -2.2221  -2.1234  1.5933
H       -3.4056  -0.8043  1.5651
H       0.4953  -2.0504  1.1246
H       1.3394  -0.6154  1.4552
H       3.1615  -0.9585  -1.8295
H       3.5725  -0.2114  -0.1973
H       -0.5420  -2.0039  -1.0071
H       -1.1566  -0.6995  -1.8762
