27

Co      -0.0350  -0.0504  0.0195
Cl      -1.1207  1.6449  -1.2466
Cl      1.1934  1.4964  1.3937
C       2.7821  -0.7525  -0.8834
C       2.1754  -1.9105  -0.0902
C       -2.5943  -1.3521  -0.4222
C       -2.5091  -1.1826  1.0768
N       1.6536  0.0827  -1.4068
N       1.0825  -1.4983  0.8649
N       -1.1879  -1.1936  -0.9586
N       -1.5204  -0.0895  1.3024
H       2.9415  -2.4513  0.4490
H       1.7223  -2.6048  -0.7827
H       -3.2135  -0.5808  -0.8690
H       -2.9846  -2.3317  -0.7129
H       1.8788  1.0712  -1.3381
H       1.4488  -0.1014  -2.3742
H       -1.9516  0.8080  1.1698
H       -1.1801  -0.0900  2.2492
H       -2.1504  -2.0821  1.5623
H       -3.4656  -0.9340  1.5112
H       0.6010  -2.3269  1.1666
H       1.4874  -1.0680  1.6797
H       3.3961  -1.1682  -1.6836
H       3.4119  -0.1251  -0.2680
H       -0.7733  -2.1117  -1.0748
H       -1.2368  -0.7732  -1.8733
