27

Co      0.0828  0.0795  0.0344
Cl      -1.0338  1.5218  -1.1718
Cl      1.0716  1.3310  1.2729
C       2.4772  -0.6975  -0.7772
C       2.0205  -1.7919  -0.0374
C       -2.4857  -1.3021  -0.4554
C       -2.3669  -1.1262  1.0226
N       1.4469  0.1145  -1.3461
N       1.0155  -1.5232  0.7964
N       -1.1221  -1.3566  -1.0159
N       -1.4108  -0.0401  1.3393
H       2.8900  -2.2350  0.4216
H       1.6641  -2.5244  -0.7560
H       -2.9823  -0.4623  -0.8879
H       -3.0518  -2.1873  -0.6906
H       1.7624  1.0511  -1.5511
H       1.1172  -0.2754  -2.2165
H       -1.8561  0.8587  1.3236
H       -1.0582  -0.1552  2.2596
H       -2.0132  -2.0301  1.5026
H       -3.3456  -0.9113  1.4369
H       0.3904  -2.3491  0.8625
H       1.3355  -1.3014  1.7578
H       3.0330  -1.2222  -1.5788
H       3.1780  -0.0560  -0.2410
H       -0.7772  -2.2841  -0.9555
H       -1.1615  -1.1084  -1.9898
