27

Co      -0.0148  -0.0305  -0.0134
Cl      -1.1413  1.6809  -1.2465
Cl      1.2193  1.5345  1.4248
C       2.8741  -0.7530  -0.8874
C       2.2547  -2.0401  -0.1664
C       -2.6075  -1.2741  -0.4046
C       -2.5047  -1.2500  1.0929
N       1.6237  0.0246  -1.3620
N       1.0534  -1.4822  0.8491
N       -1.1810  -1.3515  -0.9480
N       -1.6379  -0.0688  1.3528
H       2.8089  -2.5564  0.7137
H       1.9364  -2.7949  -0.8895
H       -3.1663  -0.3812  -0.6780
H       -3.0155  -2.1619  -0.9582
H       1.6842  1.0540  -1.2351
H       1.0575  -0.1210  -2.2325
H       -2.0156  0.8312  1.0107
H       -1.2426  0.0848  2.2870
H       -2.0776  -2.2000  1.4086
H       -3.4098  -1.0697  1.6546
H       0.3948  -2.2052  1.1188
H       1.2759  -0.8770  1.6637
H       3.4482  -0.7050  -1.8761
H       3.4410  -0.2420  -0.1031
H       -0.6600  -2.2322  -0.8951
H       -1.1023  -0.9624  -1.8766
