27

Co      0.0047  0.0000  -0.0210
Cl      -1.0580  1.5559  -1.1758
Cl      1.1876  1.4861  1.4049
C       2.6542  -0.6966  -0.8163
C       2.1020  -1.9163  -0.1051
C       -2.5602  -1.3216  -0.4491
C       -2.4225  -1.1575  1.0534
N       1.4914  0.0671  -1.3442
N       1.0392  -1.4590  0.8416
N       -1.1829  -1.3340  -1.0464
N       -1.4720  -0.0477  1.3128
H       2.8764  -2.4523  0.4230
H       1.6509  -2.5983  -0.8112
H       -3.0893  -0.4866  -0.8752
H       -3.0923  -2.2249  -0.6992
H       1.7132  1.0421  -1.4464
H       1.2165  -0.2570  -2.2500
H       -1.9214  0.8454  1.2118
H       -1.1176  -0.0711  2.2472
H       -2.0256  -2.0546  1.5033
H       -3.3804  -0.9649  1.5084
H       0.5012  -2.2383  1.1620
H       1.4621  -1.0378  1.6457
H       3.3345  -0.9769  -1.6041
H       3.1791  -0.0564  -0.1260
H       -0.8325  -2.2725  -1.0727
H       -1.2446  -1.0109  -1.9943
