27

Co      -0.0019  0.0365  0.0237
Cl      -1.0529  1.5729  -1.2061
Cl      1.0622  1.3089  1.2530
C       2.5052  -0.7281  -0.8231
C       2.0514  -1.7611  -0.1082
C       -2.3516  -1.2137  -0.3976
C       -2.3529  -1.0806  1.0349
N       1.5422  0.0455  -1.2903
N       1.0259  -1.5239  0.8036
N       -1.0012  -1.2793  -0.9766
N       -1.4659  -0.0641  1.4100
H       2.9941  -2.0182  0.4228
H       1.7701  -2.6514  -0.7057
H       -2.9140  -0.4607  -0.9127
H       -2.8365  -2.1713  -0.5526
H       1.8468  0.9946  -1.3568
H       1.2329  -0.2142  -2.2096
H       -1.8909  0.8393  1.3500
H       -1.1438  -0.1598  2.3450
H       -1.9962  -2.0127  1.4577
H       -3.3688  -0.9479  1.3898
H       0.5560  -2.4174  0.9573
H       1.3815  -1.2264  1.7092
H       3.1678  -1.1569  -1.5725
H       3.1185  -0.1531  -0.1618
H       -0.6702  -2.2136  -0.9452
H       -1.0782  -1.0151  -1.9407
