27

Co      -0.0291  0.0095  0.0212
Cl      -1.0972  1.6375  -1.2411
Cl      1.1744  1.4768  1.3782
C       2.7878  -0.6932  -0.8888
C       2.1915  -2.0286  -0.1264
C       -2.6089  -1.3775  -0.4594
C       -2.4779  -1.1588  1.0452
N       1.5112  0.0492  -1.3427
N       0.9825  -1.4881  0.8867
N       -1.1444  -1.2173  -0.8921
N       -1.3663  -0.1521  1.2251
H       2.9058  -2.5510  0.5079
H       1.7410  -2.7518  -0.7980
H       -3.2396  -0.6440  -0.9724
H       -2.9503  -2.3957  -0.7135
H       1.6664  1.0447  -1.3984
H       1.2139  -0.2341  -2.2561
H       -1.7708  0.7734  1.1688
H       -0.9914  -0.1975  2.1548
H       -2.1721  -2.0978  1.4992
H       -3.3739  -0.8140  1.5633
H       0.4461  -2.2643  1.2289
H       1.4422  -1.0813  1.6835
H       3.5262  -0.8068  -1.6975
H       3.2184  -0.0570  -0.1152
H       -0.7051  -2.1210  -0.8648
H       -1.1304  -0.9175  -1.8468
