27

Co      0.0695  0.0015  0.0372
Cl      -1.1401  1.6894  -1.2707
Cl      1.1158  1.3874  1.3117
C       2.6629  -0.7062  -0.8485
C       2.1278  -1.9169  -0.0796
C       -2.5109  -1.3024  -0.4332
C       -2.4458  -1.1667  1.0822
N       1.5385  0.1122  -1.3687
N       1.0766  -1.5603  0.9317
N       -1.1355  -1.3800  -1.0569
N       -1.5400  -0.0312  1.4225
H       2.9454  -2.4446  0.3773
H       1.6553  -2.5937  -0.7783
H       -2.9761  -0.4242  -0.8477
H       -3.1042  -2.1627  -0.7110
H       1.7779  1.0806  -1.4503
H       1.2331  -0.1834  -2.2764
H       -1.9938  0.8524  1.2809
H       -1.2379  -0.0533  2.3814
H       -2.0555  -2.0605  1.5466
H       -3.4467  -1.0142  1.4658
H       0.5002  -2.3774  1.1124
H       1.4754  -1.2592  1.8125
H       3.2988  -1.0624  -1.6484
H       3.2557  -0.0763  -0.2083
H       -0.8274  -2.3319  -1.1354
H       -1.2010  -1.0028  -1.9858
