27

Co      0.0255  0.0007  -0.0189
Cl      -1.0884  1.6120  -1.2155
Cl      1.1572  1.4357  1.3605
C       2.5388  -0.7576  -0.7823
C       2.0996  -1.8235  -0.1464
C       -2.4639  -1.2601  -0.3846
C       -2.4160  -1.1199  1.0492
N       1.5194  -0.0157  -1.1899
N       1.1261  -1.4522  0.7586
N       -1.1415  -1.3561  -1.0673
N       -1.5468  -0.0767  1.3824
H       3.0179  -2.1194  0.3995
H       1.7816  -2.6819  -0.7485
H       -3.0275  -0.4862  -0.8681
H       -2.9963  -2.1987  -0.5206
H       1.8246  0.9383  -1.2936
H       1.1973  -0.2953  -2.0948
H       -1.9761  0.8178  1.2362
H       -1.2588  -0.1057  2.3414
H       -2.0436  -2.0387  1.4754
H       -3.4297  -0.9952  1.4076
H       0.6684  -2.2864  1.0736
H       1.5404  -1.0250  1.5641
H       3.2242  -1.0603  -1.5522
H       3.1053  -0.1953  -0.0612
H       -0.8575  -2.3166  -1.1393
H       -1.2877  -1.0256  -2.0102
