27

Co      0.0064  0.0577  -0.0053
Cl      -1.0728  1.5715  -1.1999
Cl      1.1416  1.4072  1.3458
C       2.5892  -0.7576  -0.8199
C       2.0804  -1.7852  -0.1372
C       -2.4673  -1.2646  -0.3864
C       -2.4419  -1.1383  1.0503
N       1.6448  0.0153  -1.3683
N       1.1198  -1.5371  0.8463
N       -1.1451  -1.3482  -1.0542
N       -1.6015  -0.0729  1.4419
H       3.0170  -2.1341  0.3264
H       1.7222  -2.5960  -0.7595
H       -3.0343  -0.4913  -0.8751
H       -2.9920  -2.2029  -0.5306
H       1.9712  0.9611  -1.4797
H       1.3618  -0.2929  -2.2749
H       -2.0548  0.8133  1.3681
H       -1.2834  -0.1671  2.3864
H       -2.0448  -2.0560  1.4630
H       -3.4707  -1.0597  1.4017
H       0.6645  -2.4280  1.0358
H       1.5047  -1.2062  1.7151
H       3.3176  -1.1929  -1.5147
H       3.1547  -0.1716  -0.1215
H       -0.8357  -2.3006  -1.0992
H       -1.2689  -1.0348  -2.0015
