27

Co      -0.0701  0.0116  -0.0656
Cl      -1.0832  1.5794  -1.1840
Cl      1.2439  1.5458  1.4566
C       2.8388  -0.7090  -0.8070
C       2.2460  -2.1395  -0.0915
C       -2.7097  -1.3848  -0.4816
C       -2.5154  -1.2627  1.0826
N       1.4795  0.0892  -1.3683
N       1.1406  -1.4970  0.8986
N       -1.2182  -1.1520  -0.8664
N       -1.4569  -0.0827  1.1745
H       2.8977  -2.8948  0.4254
H       1.6697  -2.6622  -0.8865
H       -3.2546  -0.5057  -0.8335
H       -3.1081  -2.2964  -0.9625
H       1.6518  1.0922  -1.3893
H       1.3040  -0.1880  -2.3160
H       -1.9491  0.7989  1.1002
H       -1.0049  -0.0504  2.0821
H       -2.0947  -2.1477  1.5485
H       -3.4010  -0.9690  1.6598
H       0.6375  -2.1961  1.4795
H       1.6489  -0.8703  1.5563
H       3.5127  -0.8292  -1.6622
H       3.3000  -0.0270  -0.0936
H       -0.6926  -2.0339  -0.7197
H       -1.1708  -0.9502  -1.8578
