27

Co      0.0794  -0.0081  0.0257
Cl      -1.1097  1.6280  -1.2362
Cl      1.1357  1.4027  1.3456
C       2.5636  -0.7006  -0.7464
C       2.0184  -1.8011  -0.0836
C       -2.5306  -1.3479  -0.4292
C       -2.4552  -1.1429  1.0622
N       1.5479  0.0811  -1.4149
N       1.1680  -1.4948  0.9054
N       -1.2011  -1.3395  -1.1150
N       -1.5253  -0.0397  1.3977
H       2.8650  -2.4413  0.2204
H       1.4783  -2.3639  -0.8502
H       -3.0809  -0.5225  -0.8451
H       -3.0787  -2.2491  -0.6507
H       1.8266  1.0322  -1.5920
H       1.2967  -0.3208  -2.3017
H       -1.9529  0.8649  1.3176
H       -1.1974  -0.1261  2.3403
H       -2.1234  -2.0308  1.5889
H       -3.4694  -0.9311  1.3984
H       0.6426  -2.3119  1.1521
H       1.5893  -1.1275  1.7365
H       3.2126  -1.2160  -1.4776
H       3.1867  -0.0590  -0.1490
H       -0.8832  -2.2866  -1.2955
H       -1.3237  -0.8794  -2.0136
