27

Co      -0.0245  -0.0018  -0.0005
Cl      -1.0884  1.5740  -1.1727
Cl      1.2083  1.4963  1.4136
C       2.8149  -0.6915  -0.8405
C       2.1626  -1.9963  -0.1817
C       -2.7050  -1.2896  -0.4481
C       -2.4109  -1.2202  1.0156
N       1.5745  0.0382  -1.3875
N       1.0873  -1.4264  0.9456
N       -1.2612  -1.2917  -0.9196
N       -1.4791  -0.0735  1.1359
H       2.7172  -2.6391  0.5694
H       1.7234  -2.6543  -0.9357
H       -3.3580  -0.4630  -0.7430
H       -3.0247  -2.2450  -0.9301
H       1.6149  1.0695  -1.3213
H       1.0150  -0.1839  -2.2331
H       -1.8640  0.8360  0.8180
H       -1.0536  0.1021  2.0478
H       -1.9177  -2.1853  1.2552
H       -3.2223  -1.0108  1.7749
H       0.4969  -2.1370  1.3436
H       1.4015  -0.7494  1.6706
H       3.4652  -0.6177  -1.7853
H       3.3096  -0.1757  -0.0036
H       -0.7144  -2.1592  -0.7913
H       -1.1222  -0.9477  -1.8632
