27

Co      -0.0249  -0.0131  0.0466
Cl      -1.0418  1.5672  -1.1919
Cl      1.1119  1.3884  1.3132
C       2.5105  -0.7093  -0.8257
C       2.0159  -1.7231  -0.1229
C       -2.3874  -1.2429  -0.4295
C       -2.2848  -1.0360  0.9947
N       1.5281  0.0286  -1.2880
N       0.9844  -1.4654  0.7807
N       -1.0761  -1.3882  -1.0879
N       -1.3825  -0.0367  1.3605
H       2.9193  -2.0283  0.4226
H       1.7104  -2.5830  -0.7374
H       -2.9584  -0.5067  -0.9665
H       -2.9305  -2.2029  -0.4733
H       1.7925  0.9859  -1.3749
H       1.2068  -0.2613  -2.1927
H       -1.7847  0.8812  1.3163
H       -1.0584  -0.1490  2.2932
H       -1.9115  -1.9630  1.4062
H       -3.2710  -0.8969  1.4008
H       0.5176  -2.3551  0.9367
H       1.3456  -1.1695  1.6833
H       3.1719  -1.1468  -1.5713
H       3.1228  -0.1250  -0.1687
H       -0.8013  -2.3448  -1.1277
H       -1.1606  -1.0587  -2.0290
