27

Co      -0.0175  -0.0845  -0.0118
Cl      -1.1606  1.7250  -1.2658
Cl      1.2386  1.5703  1.4468
C       2.7559  -0.7767  -0.8185
C       2.2172  -1.9589  -0.1392
C       -2.5945  -1.2768  -0.4015
C       -2.4629  -1.2279  1.0716
N       1.6040  0.0282  -1.3261
N       1.1365  -1.5243  0.8128
N       -1.2051  -1.3775  -0.9795
N       -1.5997  -0.0534  1.3154
H       2.8499  -2.4611  0.6396
H       1.9270  -2.7008  -0.8914
H       -3.1533  -0.3823  -0.6630
H       -3.0348  -2.1560  -0.9290
H       1.7158  1.0485  -1.1615
H       1.0851  -0.0836  -2.2175
H       -1.9608  0.8548  0.9941
H       -1.1887  0.0793  2.2409
H       -2.0516  -2.1665  1.4204
H       -3.3743  -1.0268  1.6124
H       0.5343  -2.2832  1.0739
H       1.3267  -0.8931  1.6342
H       3.2382  -0.9000  -1.8151
H       3.4524  -0.2711  -0.1409
H       -0.6974  -2.2622  -0.9325
H       -1.1433  -0.9896  -1.9085
