27

Co      0.0064  0.0432  -0.0040
Cl      -1.0262  1.5205  -1.1701
Cl      1.0963  1.3593  1.3047
C       2.6060  -0.6707  -0.8499
C       2.0611  -1.8720  -0.0668
C       -2.4004  -1.2679  -0.4475
C       -2.3813  -1.1144  1.0757
N       1.4964  0.1322  -1.4198
N       0.9610  -1.5314  0.8910
N       -1.0427  -1.3451  -1.0803
N       -1.4863  0.0090  1.4833
H       2.8711  -2.3585  0.4384
H       1.6390  -2.5820  -0.7610
H       -2.8733  -0.4063  -0.8797
H       -2.9911  -2.1317  -0.7018
H       1.7323  1.0949  -1.5175
H       1.2091  -0.1901  -2.3291
H       -1.9388  0.9037  1.4688
H       -1.1086  -0.1107  2.4009
H       -2.0073  -2.0066  1.5550
H       -3.4037  -0.9726  1.4174
H       0.3780  -2.3520  1.0422
H       1.3214  -1.2403  1.7953
H       3.2637  -1.0448  -1.6242
H       3.1705  -0.0213  -0.2087
H       -0.7001  -2.2794  -1.1056
H       -1.1156  -1.0152  -2.0237
