27

Co      -0.0255  0.0125  0.0182
Cl      -1.1009  1.6412  -1.2447
Cl      1.1780  1.4805  1.3856
C       2.6986  -0.7310  -0.8051
C       2.1426  -1.9209  -0.1245
C       -2.5738  -1.3639  -0.4266
C       -2.4698  -1.1551  1.0334
N       1.5932  0.0484  -1.4357
N       1.1006  -1.5743  0.9003
N       -1.1784  -1.2954  -0.9682
N       -1.4469  -0.1183  1.3190
H       2.8029  -2.4667  0.5609
H       1.8106  -2.6190  -0.8958
H       -3.2876  -0.6175  -0.7993
H       -2.8510  -2.3712  -0.8368
H       1.7156  1.0501  -1.3856
H       1.0601  -0.1798  -2.2890
H       -1.7431  0.8511  1.2588
H       -0.9323  -0.2185  2.1888
H       -2.2241  -2.1289  1.4606
H       -3.3686  -0.7753  1.5333
H       0.4881  -2.3621  1.0704
H       1.2950  -1.0348  1.7657
H       3.2513  -0.9056  -1.7359
H       3.3458  -0.2031  -0.1157
H       -0.5860  -2.1377  -0.9367
H       -1.1177  -0.8790  -1.8828
