27

Co      0.0738  0.0306  0.0524
Cl      -1.0911  1.6161  -1.2283
Cl      1.0524  1.2789  1.2513
C       2.5479  -0.6702  -0.7508
C       1.9939  -1.8057  -0.0739
C       -2.4406  -1.2821  -0.4604
C       -2.4009  -1.1482  1.0635
N       1.4698  0.0570  -1.3592
N       1.0777  -1.4328  0.8144
N       -1.0428  -1.2541  -0.9588
N       -1.4572  -0.0419  1.3647
H       2.9400  -2.4333  0.0899
H       1.3763  -2.3574  -0.8011
H       -2.8107  -0.3991  -0.9770
H       -3.1222  -2.1242  -0.6043
H       1.8339  0.9759  -1.7496
H       1.4800  -0.4986  -2.2846
H       -2.0248  0.8034  1.3340
H       -1.2592  -0.1128  2.3558
H       -1.9805  -1.9989  1.6091
H       -3.4506  -1.0458  1.3728
H       0.6299  -2.2725  1.1485
H       1.7159  -1.2635  1.6349
H       3.3495  -1.3068  -1.3173
H       3.0229  0.0919  -0.1482
H       -0.8667  -2.2532  -0.9667
H       -1.1578  -1.0625  -1.9473
