27

Co      0.0331  0.0854  0.0137
Cl      -1.0466  1.5602  -1.1998
Cl      1.0559  1.2894  1.2403
C       2.4959  -0.7267  -0.7860
C       2.1069  -1.8790  -0.0216
C       -2.3893  -1.2856  -0.4632
C       -2.3653  -1.1063  1.0651
N       1.3758  0.0939  -1.1716
N       1.0573  -1.5001  0.7183
N       -1.0297  -1.3223  -1.0461
N       -1.4247  -0.0056  1.4361
H       3.1155  -2.2572  0.3029
H       1.6763  -2.6344  -0.6581
H       -2.7510  -0.4138  -1.0043
H       -3.1224  -2.1210  -0.5417
H       1.8114  1.0026  -1.4684
H       1.3231  -0.3195  -2.1254
H       -1.9886  0.8479  1.5433
H       -1.1531  -0.1930  2.3937
H       -1.9788  -1.9478  1.6455
H       -3.4389  -0.9918  1.3167
H       0.5749  -2.3391  0.9979
H       1.6155  -1.3357  1.5899
H       3.1344  -1.3135  -1.4960
H       3.1104  0.0020  -0.2582
H       -0.8394  -2.3123  -1.0138
H       -1.1991  -1.1851  -2.0542
