27

Co      0.0243  0.0052  -0.0729
Cl      -1.0580  1.5549  -1.1643
Cl      1.1981  1.5207  1.4217
C       2.6065  -0.7166  -0.8375
C       2.1440  -1.9517  -0.0686
C       -2.5571  -1.2777  -0.4273
C       -2.4441  -1.2086  1.0783
N       1.4624  0.1139  -1.3253
N       1.0117  -1.5643  0.8358
N       -1.1506  -1.3242  -0.9599
N       -1.5272  -0.0559  1.2983
H       2.9839  -2.3455  0.5061
H       1.7987  -2.7416  -0.7329
H       -3.0158  -0.3809  -0.8138
H       -3.1179  -2.1338  -0.7816
H       1.7270  1.0889  -1.3253
H       1.2020  -0.1005  -2.2686
H       -2.0091  0.8101  1.1315
H       -1.1801  -0.0052  2.2379
H       -2.0071  -2.1005  1.5008
H       -3.4061  -1.0560  1.5461
H       0.4524  -2.3646  1.0793
H       1.3694  -1.1772  1.6947
H       3.2394  -1.0004  -1.6589
H       3.1758  -0.0796  -0.1789
H       -0.7858  -2.2586  -0.8564
H       -1.1880  -1.1320  -1.9569
