27

Co      0.0748  -0.0219  0.0474
Cl      -1.0935  1.6331  -1.2461
Cl      1.0600  1.3081  1.2601
C       2.4795  -0.6674  -0.7606
C       1.9821  -1.7697  -0.0471
C       -2.3928  -1.2969  -0.4367
C       -2.3736  -1.0814  1.0615
N       1.4785  0.1370  -1.3958
N       1.0888  -1.5368  0.9254
N       -1.0645  -1.3258  -1.1111
N       -1.4412  -0.0014  1.4504
H       2.8605  -2.3365  0.2653
H       1.4894  -2.3862  -0.7926
H       -2.9128  -0.4698  -0.8717
H       -2.9600  -2.1881  -0.6506
H       1.7464  1.0877  -1.5206
H       1.2119  -0.2163  -2.2990
H       -1.8480  0.9166  1.4136
H       -1.0983  -0.1300  2.3799
H       -2.0748  -1.9727  1.6093
H       -3.4080  -0.8598  1.3497
H       0.5488  -2.3786  1.0847
H       1.4698  -1.2361  1.8153
H       3.0775  -1.2167  -1.5206
H       3.1505  -0.0294  -0.2077
H       -0.7507  -2.2659  -1.2667
H       -1.1735  -0.8744  -2.0117
