27

Co      -0.0019  0.0586  0.0193
Cl      -1.0860  1.6330  -1.2405
Cl      1.0985  1.3567  1.2985
C       2.6752  -0.6973  -0.8365
C       2.1320  -1.9573  -0.0875
C       -2.4363  -1.3044  -0.4637
C       -2.4443  -1.1569  1.0848
N       1.4700  0.0418  -1.3212
N       0.9982  -1.4994  0.7933
N       -1.0066  -1.2707  -0.9298
N       -1.4536  -0.0765  1.4152
H       3.0393  -2.4660  0.2660
H       1.6061  -2.6266  -0.7509
H       -2.8060  -0.4392  -1.0271
H       -3.0893  -2.1668  -0.6113
H       1.8014  0.9768  -1.6328
H       1.4589  -0.4264  -2.2702
H       -2.0128  0.7787  1.4729
H       -1.1953  -0.2111  2.3884
H       -2.0626  -2.0205  1.6318
H       -3.4885  -1.0198  1.3801
H       0.5328  -2.3327  1.1245
H       1.6167  -1.3283  1.6279
H       3.5031  -1.1311  -1.4530
H       3.0717  0.0631  -0.1582
H       -0.7811  -2.2551  -0.8621
H       -1.1071  -1.1518  -1.9427
