27

Co      0.0128  0.0852  0.0322
Cl      -1.0466  1.5550  -1.2050
Cl      1.0454  1.2616  1.2298
C       2.4750  -0.6982  -0.8077
C       2.0353  -1.7928  -0.0956
C       -2.3896  -1.2841  -0.4338
C       -2.3564  -1.0448  1.0232
N       1.4717  0.0497  -1.2308
N       1.0824  -1.5022  0.8642
N       -1.0425  -1.2471  -1.0319
N       -1.3801  -0.0809  1.3731
H       3.1332  -2.1190  0.1392
H       1.5486  -2.5930  -0.6486
H       -2.9293  -0.5858  -1.1047
H       -2.9571  -2.2713  -0.3260
H       1.8928  0.9620  -1.5099
H       1.4207  -0.3632  -2.1834
H       -1.8977  0.8022  1.4855
H       -1.1315  -0.2909  2.3347
H       -1.9978  -1.9341  1.5380
H       -3.4062  -0.9187  1.3166
H       0.7449  -2.4155  1.1950
H       1.7267  -1.3225  1.6791
H       3.3168  -1.2308  -1.3829
H       2.9333  -0.0139  -0.1201
H       -0.8679  -2.2411  -1.0888
H       -1.2415  -1.0329  -2.0092
