27

Co      -0.0484  -0.0437  -0.0729
Cl      -1.0901  1.6322  -1.2169
Cl      1.1912  1.4871  1.4005
C       2.5918  -0.7080  -0.7854
C       2.1643  -1.9948  -0.0882
C       -2.4862  -1.2891  -0.4311
C       -2.4039  -1.1403  1.0771
N       1.4228  0.1024  -1.2484
N       1.1465  -1.5818  0.9219
N       -1.1007  -1.2622  -1.0185
N       -1.4499  -0.0354  1.3226
H       3.0281  -2.4657  0.3733
H       1.7212  -2.7101  -0.7633
H       -3.0213  -0.4546  -0.8552
H       -2.9869  -2.1988  -0.7229
H       1.6603  1.0886  -1.1818
H       1.2088  -0.0654  -2.2224
H       -1.8920  0.8657  1.2575
H       -1.0332  -0.0704  2.2358
H       -2.0291  -2.0341  1.5496
H       -3.3782  -0.9299  1.4908
H       0.7277  -2.3789  1.3887
H       1.6034  -1.0161  1.6404
H       3.2488  -0.9059  -1.6188
H       3.1227  -0.0941  -0.0817
H       -0.7028  -2.1832  -0.9906
H       -1.1773  -0.9871  -1.9817
