27

Co      0.0120  -0.0762  -0.0833
Cl      -1.1167  1.6717  -1.2243
Cl      1.2600  1.6202  1.5020
C       2.7656  -0.6784  -0.8212
C       2.1961  -2.1112  -0.0760
C       -2.6038  -1.3322  -0.4627
C       -2.5146  -1.2723  1.1317
N       1.4141  0.1068  -1.3956
N       0.9937  -1.5339  0.8504
N       -1.1363  -1.3257  -0.9304
N       -1.5329  -0.0510  1.3126
H       2.8516  -2.7870  0.5059
H       1.7008  -2.6810  -0.8714
H       -2.9660  -0.3238  -0.7682
H       -3.2064  -2.1108  -1.0001
H       1.5543  1.1128  -1.4254
H       1.2123  -0.1790  -2.3362
H       -2.0135  0.8163  1.1087
H       -1.1628  0.0522  2.2585
H       -2.1099  -2.1411  1.6258
H       -3.4653  -1.0398  1.5836
H       0.3736  -2.2386  1.2296
H       1.4049  -1.0568  1.6363
H       3.4339  -0.8127  -1.6638
H       3.2184  0.0292  -0.1275
H       -0.7321  -2.2535  -0.8348
H       -1.1202  -1.1042  -1.9180
