27

Co      0.0028  0.0496  0.0028
Cl      -1.0691  1.5678  -1.1962
Cl      1.1379  1.4035  1.3385
C       2.7017  -0.7216  -0.8293
C       2.1375  -1.9295  -0.1059
C       -2.5275  -1.3048  -0.4389
C       -2.4533  -1.1772  1.0687
N       1.5397  0.0529  -1.3496
N       1.0559  -1.4646  0.8178
N       -1.1298  -1.2873  -0.9849
N       -1.5212  -0.0564  1.3716
H       2.9015  -2.4547  0.4450
H       1.7044  -2.6232  -0.8105
H       -3.0448  -0.4624  -0.8619
H       -3.0356  -2.2058  -0.7380
H       1.7801  1.0196  -1.4812
H       1.2520  -0.2876  -2.2482
H       -1.9872  0.8285  1.2890
H       -1.1719  -0.1005  2.3083
H       -2.0606  -2.0794  1.5205
H       -3.4316  -1.0035  1.4912
H       0.4991  -2.2477  1.1079
H       1.4700  -1.0761  1.6436
H       3.3677  -1.0213  -1.6239
H       3.2464  -0.0877  -0.1503
H       -0.7480  -2.2128  -0.9648
H       -1.1715  -0.9984  -1.9433
