27

Co      0.0794  -0.0116  0.0212
Cl      -1.0837  1.6078  -1.2115
Cl      1.1058  1.3651  1.3251
C       2.4935  -0.6483  -0.7149
C       1.9442  -1.7715  -0.0929
C       -2.4512  -1.2853  -0.4465
C       -2.3708  -1.1248  1.0493
N       1.4817  0.0833  -1.4467
N       1.1098  -1.4961  0.9212
N       -1.1169  -1.3832  -1.1008
N       -1.4800  -0.0038  1.4042
H       2.7904  -2.4420  0.1728
H       1.3880  -2.2993  -0.8865
H       -2.9161  -0.4012  -0.8432
H       -3.0796  -2.1274  -0.6931
H       1.7296  1.0340  -1.6846
H       1.2301  -0.3877  -2.3149
H       -1.9227  0.8938  1.3164
H       -1.1501  -0.0739  2.3416
H       -1.9931  -2.0138  1.5360
H       -3.3856  -0.9728  1.4076
H       0.5786  -2.3132  1.1524
H       1.5347  -1.1571  1.7625
H       3.2017  -1.1359  -1.4053
H       3.0440  0.0117  -0.0811
H       -0.8278  -2.3383  -1.1725
H       -1.1965  -1.0149  -2.0299
