27

Co      -0.1082  -0.0976  -0.0112
Cl      -1.0964  1.6511  -1.2294
Cl      1.1975  1.5035  1.4070
C       2.6910  -0.7038  -0.8318
C       2.1307  -1.9159  -0.1028
C       -2.4767  -1.2835  -0.4480
C       -2.3710  -1.1250  1.0557
N       1.5460  0.0867  -1.3764
N       1.0763  -1.5391  0.9049
N       -1.0854  -1.2442  -0.9920
N       -1.4164  -0.0249  1.3022
H       2.9244  -2.4755  0.3736
H       1.6564  -2.5780  -0.8138
H       -3.0252  -0.4679  -0.8899
H       -2.9549  -2.2128  -0.7246
H       1.7295  1.0861  -1.2751
H       1.3815  -0.0873  -2.3622
H       -1.8491  0.8797  1.2276
H       -1.0127  -0.0512  2.2204
H       -1.9693  -2.0197  1.5097
H       -3.3260  -0.9283  1.5083
H       0.6810  -2.3762  1.3096
H       1.5133  -1.0246  1.6607
H       3.3532  -1.0373  -1.6166
H       3.2446  -0.0695  -0.1682
H       -0.6865  -2.1667  -0.9887
H       -1.1054  -0.9232  -1.9378
