27

Co      0.0111  -0.0517  -0.0731
Cl      -1.0607  1.5639  -1.1670
Cl      1.2007  1.5328  1.4270
C       2.7206  -0.6824  -0.8998
C       2.1670  -2.0172  -0.1039
C       -2.5542  -1.2523  -0.4238
C       -2.4645  -1.2218  1.1019
N       1.4456  0.0948  -1.3076
N       0.8896  -1.4474  0.8140
N       -1.0859  -1.2258  -0.8653
N       -1.5114  -0.0833  1.2465
H       2.8899  -2.4234  0.6319
H       1.8090  -2.8332  -0.7394
H       -3.0259  -0.3661  -0.8160
H       -3.0336  -2.1370  -0.8429
H       1.6057  1.1003  -1.2532
H       1.1732  -0.0844  -2.2620
H       -1.9827  0.7800  0.9427
H       -1.2201  0.0996  2.2143
H       -2.0218  -2.1271  1.4957
H       -3.3950  -1.0452  1.6179
H       0.3106  -2.1953  1.1575
H       1.2922  -1.0069  1.6216
H       3.4231  -0.7700  -1.7366
H       3.1653  -0.0464  -0.1362
H       -0.7072  -2.1567  -0.7826
H       -1.0847  -1.0005  -1.8525
