27

Co      -0.0037  0.0045  0.0081
Cl      -1.0972  1.6375  -1.2411
Cl      1.1744  1.4732  1.3782
C       2.8034  -0.6954  -0.8304
C       2.2211  -2.1043  -0.0733
C       -2.6086  -1.4104  -0.4887
C       -2.5025  -1.1940  1.0872
N       1.4100  0.0777  -1.2993
N       1.0099  -1.4335  0.7933
N       -1.1422  -1.2400  -0.9431
N       -1.3899  -0.0873  1.2933
H       2.8304  -2.7836  0.5666
H       1.7271  -2.6935  -0.8547
H       -3.1347  -0.5559  -0.8930
H       -3.0526  -2.3241  -0.8872
H       1.5588  1.0695  -1.4252
H       1.1215  -0.2690  -2.1981
H       -1.8145  0.8295  1.2632
H       -0.9814  -0.1469  2.2139
H       -2.2213  -2.0905  1.6434
H       -3.4276  -0.8084  1.5320
H       0.3654  -2.1144  1.1893
H       1.4518  -0.9738  1.5733
H       3.4016  -0.8318  -1.7372
H       3.3273  -0.0149  -0.1693
H       -0.6766  -2.1344  -0.9315
H       -1.1352  -0.9175  -1.8918
