27

Co      -0.0064  -0.0570  0.0046
Cl      -1.1040  1.6524  -1.2312
Cl      1.1728  1.4715  1.3752
C       2.6300  -0.7032  -0.8017
C       2.1394  -1.9479  -0.1023
C       -2.5496  -1.3104  -0.4536
C       -2.3798  -1.1368  1.0374
N       1.4239  0.0602  -1.2190
N       1.0687  -1.4590  0.8214
N       -1.1445  -1.2927  -0.9829
N       -1.3759  -0.0638  1.2208
H       2.9217  -2.4436  0.4525
H       1.7136  -2.6674  -0.7922
H       -3.0927  -0.4955  -0.8950
H       -3.0374  -2.2407  -0.7105
H       1.6256  1.0471  -1.2477
H       1.1416  -0.1866  -2.1471
H       -1.8015  0.8413  1.0812
H       -1.0321  -0.0399  2.1612
H       -1.9999  -2.0445  1.4837
H       -3.3028  -0.8858  1.5390
H       0.5726  -2.2310  1.2237
H       1.5159  -0.9767  1.5865
H       3.2537  -0.9238  -1.6552
H       3.1913  -0.0877  -0.1208
H       -0.7810  -2.2238  -0.9665
H       -1.1696  -0.9947  -1.9396
