27

Co      0.0006  -0.0234  0.0313
Cl      -1.0722  1.6118  -1.2307
Cl      1.0710  1.3132  1.2645
C       2.4942  -0.6858  -0.7379
C       2.0218  -1.8064  -0.0633
C       -2.3767  -1.2881  -0.4433
C       -2.3456  -1.0675  1.0467
N       1.4454  0.0966  -1.3104
N       1.1123  -1.4962  0.8540
N       -1.0278  -1.2471  -1.0492
N       -1.3779  -0.0132  1.3922
H       2.8803  -2.3489  0.3109
H       1.5644  -2.4517  -0.8022
H       -2.9372  -0.4948  -0.8945
H       -2.8732  -2.2176  -0.6668
H       1.7051  1.0539  -1.4045
H       1.2001  -0.2245  -2.2305
H       -1.7802  0.9144  1.4052
H       -0.9873  -0.1571  2.3019
H       -2.0542  -1.9669  1.5894
H       -3.3557  -0.8105  1.3689
H       0.6340  -2.3190  1.1530
H       1.5220  -1.0801  1.6718
H       3.0804  -1.1594  -1.5324
H       3.1535  -0.0610  -0.1629
H       -0.6530  -2.1644  -1.1151
H       -1.1095  -0.8685  -1.9733
