27

Co      -0.0216  0.0313  0.0756
Cl      -1.0529  1.5739  -1.2176
Cl      1.0517  1.2743  1.2362
C       2.5528  -0.7081  -0.8019
C       2.0094  -1.7258  -0.1447
C       -2.3547  -1.2576  -0.4194
C       -2.3313  -1.0295  1.0100
N       1.5712  -0.0014  -1.3091
N       1.0535  -1.4185  0.8094
N       -1.0335  -1.2890  -1.0631
N       -1.4107  -0.0559  1.4246
H       2.8867  -2.1251  0.3397
H       1.6222  -2.5082  -0.7840
H       -2.9874  -0.5664  -0.9741
H       -2.8108  -2.2624  -0.4702
H       1.8331  0.9477  -1.4779
H       1.2475  -0.3707  -2.1910
H       -1.8032  0.8747  1.4303
H       -1.0812  -0.2257  2.3544
H       -2.0147  -1.9668  1.4602
H       -3.3431  -0.8568  1.3521
H       0.6047  -2.2911  1.0400
H       1.4742  -1.0871  1.6602
H       3.2628  -1.1334  -1.5177
H       3.1219  -0.1300  -0.1090
H       -0.7168  -2.2275  -1.1615
H       -1.1347  -0.8941  -1.9781
