27

Co      0.0123  0.1007  0.0007
Cl      -1.0367  1.5350  -1.1652
Cl      1.1017  1.3501  1.3052
C       2.4875  -0.7121  -0.7646
C       2.0326  -1.7915  -0.1476
C       -2.4480  -1.2274  -0.4232
C       -2.3311  -1.1145  0.9974
N       1.5075  -0.0019  -1.3000
N       1.0849  -1.5276  0.8279
N       -1.0980  -1.3843  -0.9917
N       -1.4603  -0.0727  1.3352
H       2.9779  -2.1300  0.3082
H       1.6909  -2.6058  -0.7837
H       -2.9680  -0.4333  -0.9191
H       -3.0036  -2.1455  -0.5602
H       1.8205  0.9377  -1.5240
H       1.1751  -0.4014  -2.1653
H       -1.9244  0.8164  1.2972
H       -1.1196  -0.1672  2.2623
H       -1.8955  -2.0506  1.3463
H       -3.3083  -1.0355  1.4604
H       0.6175  -2.3963  1.0440
H       1.4939  -1.2077  1.6881
H       3.2540  -1.0444  -1.4634
H       2.9835  -0.1215  -0.0162
H       -0.7885  -2.3304  -0.8256
H       -1.1424  -1.2508  -2.0002
