27

Co      0.0148  0.0348  0.0091
Cl      -1.0355  1.5430  -1.1846
Cl      1.0951  1.3442  1.2963
C       2.5332  -0.6403  -0.7812
C       2.0427  -1.9029  -0.0833
C       -2.4605  -1.3275  -0.4725
C       -2.3376  -1.0603  1.0274
N       1.3786  0.1136  -1.2996
N       1.0506  -1.4929  0.9425
N       -1.1012  -1.3153  -1.1046
N       -1.3226  -0.0263  1.3423
H       2.8681  -2.4483  0.3408
H       1.5425  -2.5622  -0.7850
H       -3.0453  -0.5591  -0.9577
H       -2.9582  -2.2775  -0.6222
H       1.5973  1.0787  -1.4464
H       1.0610  -0.2470  -2.1870
H       -1.7280  0.9077  1.3889
H       -0.9109  -0.1855  2.2425
H       -2.0262  -1.9724  1.5224
H       -3.3020  -0.7895  1.4409
H       0.5282  -2.2759  1.2710
H       1.5108  -1.0860  1.7352
H       3.2190  -0.8883  -1.5800
H       3.0462  -0.0101  -0.0818
H       -0.7413  -2.2384  -1.1602
H       -1.1828  -0.9489  -2.0336
