27

Co      -0.0701  0.0213  -0.0708
Cl      -1.0697  1.5884  -1.1885
Cl      1.2349  1.5458  1.4611
C       2.6812  -0.7172  -0.7551
C       2.1512  -1.9980  -0.1437
C       -2.6130  -1.3446  -0.4417
C       -2.4832  -1.2095  1.0450
N       1.5019  -0.0010  -1.3641
N       1.1359  -1.5323  0.8510
N       -1.1586  -1.1847  -0.8395
N       -1.4362  -0.1511  1.1916
H       2.9453  -2.5722  0.3358
H       1.6883  -2.6411  -0.8796
H       -3.2064  -0.5522  -0.8893
H       -2.9826  -2.3139  -0.7862
H       1.7268  0.9800  -1.4622
H       1.3157  -0.3361  -2.2891
H       -1.8858  0.7534  1.1641
H       -0.9995  -0.1914  2.0971
H       -2.1239  -2.1346  1.4833
H       -3.3951  -0.9263  1.5622
H       0.7116  -2.3171  1.3423
H       1.6169  -0.9751  1.5567
H       3.4704  -0.8966  -1.4912
H       3.0823  -0.0680  0.0256
H       -0.6752  -2.0779  -0.6434
H       -1.1422  -1.0574  -1.8526
