27

Co      0.0047  -0.0007  -0.0203
Cl      -1.0580  1.5559  -1.1758
Cl      1.1876  1.4861  1.4049
C       2.7667  -0.6569  -0.8368
C       2.1518  -2.0532  -0.0664
C       -2.5984  -1.3619  -0.4980
C       -2.4413  -1.1927  1.0865
N       1.4194  0.1303  -1.3844
N       0.9900  -1.4417  0.8757
N       -1.1749  -1.3283  -1.0508
N       -1.4432  -0.0017  1.3272
H       2.7793  -2.7840  0.4901
H       1.5963  -2.5924  -0.8585
H       -3.0520  -0.4357  -0.8509
H       -3.1727  -2.1984  -0.8845
H       1.5662  1.1227  -1.4994
H       1.1508  -0.2259  -2.2859
H       -1.9128  0.8864  1.2468
H       -1.0465  -0.0156  2.2501
H       -2.0414  -2.0633  1.5865
H       -3.3818  -0.9491  1.5611
H       0.3505  -2.1353  1.2452
H       1.4311  -0.9961  1.6588
H       3.3993  -0.8421  -1.6986
H       3.2708  0.0386  -0.1732
H       -0.7779  -2.2510  -1.0635
H       -1.1877  -0.9893  -1.9950
