27

Co      -0.0594  -0.0473  -0.0871
Cl      -1.0690  1.5665  -1.1799
Cl      1.2453  1.5792  1.4593
C       2.8355  -0.7444  -0.8793
C       2.2886  -2.1264  -0.0431
C       -2.6205  -1.3464  -0.4497
C       -2.5384  -1.2574  1.1349
N       1.4616  0.1282  -1.2896
N       1.0060  -1.4608  0.7543
N       -1.1457  -1.1486  -0.8912
N       -1.5248  -0.0513  1.2765
H       2.9272  -2.6826  0.6886
H       1.8872  -2.8244  -0.7693
H       -3.1170  -0.4351  -0.7793
H       -3.0632  -2.2235  -0.9756
H       1.6453  1.1370  -1.1664
H       1.2670  0.0052  -2.2831
H       -2.0042  0.8198  1.1149
H       -1.1214  0.0343  2.2058
H       -2.1516  -2.1235  1.6551
H       -3.4771  -0.9746  1.5960
H       0.4192  -2.1563  1.2115
H       1.3976  -0.8896  1.5067
H       3.3561  -0.9199  -1.8312
H       3.4417  -0.0774  -0.2680
H       -0.6476  -2.0395  -0.8440
H       -1.1532  -0.8737  -1.8617
