27

Co      -0.0076  -0.1042  -0.0263
Cl      -1.0836  1.6126  -1.2014
Cl      1.2132  1.5378  1.4397
C       2.7625  -0.6427  -0.8412
C       2.1300  -2.0302  -0.0673
C       -2.5603  -1.3392  -0.4877
C       -2.4272  -1.1801  1.1036
N       1.4161  0.1405  -1.3898
N       0.9658  -1.4221  0.8803
N       -1.1416  -1.3110  -1.0612
N       -1.4407  0.0156  1.3227
H       2.7447  -2.7776  0.4902
H       1.5603  -2.5567  -0.8634
H       -3.0013  -0.4000  -0.8271
H       -3.1445  -2.1663  -0.8946
H       1.5206  1.1507  -1.4053
H       1.1938  -0.1467  -2.3268
H       -1.8906  0.9057  1.1555
H       -1.0729  0.0726  2.2614
H       -2.0300  -2.0416  1.6190
H       -3.3758  -0.9359  1.5539
H       0.3629  -2.1212  1.2896
H       1.4083  -0.9303  1.6409
H       3.3877  -0.8435  -1.7005
H       3.2718  0.0536  -0.1867
H       -0.7698  -2.2452  -1.1523
H       -1.1658  -0.8997  -1.9813
