27

Co      0.0000  -0.0007  0.0007
Cl      -1.0884  1.6120  -1.2155
Cl      1.1572  1.4393  1.3605
C       2.7784  -0.6709  -0.8414
C       2.1845  -2.0719  -0.0618
C       -2.5656  -1.3478  -0.4933
C       -2.4389  -1.1903  1.0936
N       1.4264  0.1327  -1.3540
N       1.0204  -1.4721  0.8851
N       -1.1329  -1.3119  -1.0250
N       -1.4456  0.0006  1.3529
H       2.8237  -2.7863  0.4901
H       1.6360  -2.6228  -0.8468
H       -3.0076  -0.4170  -0.8486
H       -3.1353  -2.1820  -0.8985
H       1.5779  1.1250  -1.4433
H       1.1532  -0.1932  -2.2648
H       -1.9151  0.8887  1.2772
H       -1.0512  -0.0203  2.2782
H       -2.0460  -2.0633  1.5982
H       -3.3888  -0.9491  1.5494
H       0.3926  -2.1750  1.2546
H       1.4638  -1.0288  1.6705
H       3.3829  -0.8561  -1.7266
H       3.3106  0.0129  -0.1919
H       -0.7264  -2.2299  -1.0191
H       -1.1340  -0.9823  -1.9716
