27

Co      0.1135  0.0755  0.0208
Cl      -1.0679  1.5383  -1.1777
Cl      1.0855  1.3061  1.2785
C       2.5349  -0.6981  -0.7468
C       2.0397  -1.8455  -0.0660
C       -2.5444  -1.3142  -0.4610
C       -2.4123  -1.1591  1.0574
N       1.4233  0.0661  -1.2287
N       1.1466  -1.3743  0.7889
N       -1.1895  -1.3238  -1.0833
N       -1.5037  -0.0135  1.3371
H       2.9990  -2.4246  0.1339
H       1.4311  -2.4425  -0.7528
H       -2.9368  -0.4307  -0.9536
H       -3.2740  -2.1480  -0.5391
H       1.8374  0.9764  -1.6392
H       1.3682  -0.4702  -2.1382
H       -2.0969  0.8165  1.2781
H       -1.3204  -0.0605  2.3345
H       -1.9409  -1.9929  1.5850
H       -3.4537  -1.0935  1.4058
H       0.6706  -2.1646  1.1976
H       1.8082  -1.1407  1.5614
H       3.2762  -1.2631  -1.3866
H       3.0588  0.0359  -0.1461
H       -1.0532  -2.3398  -1.1731
H       -1.3783  -1.0791  -2.0564
