27

Co      0.0000  0.0103  -0.0051
Cl      -1.1089  1.6428  -1.2207
Cl      1.1726  1.4496  1.3811
C       2.6847  -0.7123  -0.7459
C       2.1228  -1.9419  -0.1687
C       -2.5532  -1.2683  -0.4292
C       -2.4083  -1.1962  1.0417
N       1.5359  0.0044  -1.3683
N       1.1550  -1.4927  0.8765
N       -1.1647  -1.3859  -0.9916
N       -1.5358  -0.0453  1.3316
H       2.7522  -2.5625  0.4870
H       1.7310  -2.5722  -0.9702
H       -3.1126  -0.3806  -0.7060
H       -3.0010  -2.1451  -0.9194
H       1.6381  1.0066  -1.4165
H       0.9808  -0.3085  -2.1898
H       -1.9055  0.8749  1.1209
H       -1.0835  -0.0040  2.2310
H       -2.0008  -2.1502  1.3717
H       -3.3176  -1.0030  1.5974
H       0.5471  -2.2251  1.1871
H       1.4155  -0.8678  1.6571
H       3.2967  -0.7609  -1.6673
H       3.2406  -0.1892  0.0244
H       -0.6502  -2.2620  -0.8624
H       -1.0851  -1.0626  -1.9385
