27

Co      -0.0303  -0.0370  -0.0104
Cl      -1.0769  1.5977  -1.2113
Cl      1.2148  1.5431  1.4427
C       2.8078  -0.6723  -0.9078
C       2.1323  -1.9740  -0.1300
C       -2.5815  -1.3661  -0.4445
C       -2.5066  -1.1670  1.0783
N       1.5754  0.0663  -1.4732
N       0.9288  -1.4686  0.9114
N       -1.1495  -1.2413  -0.9661
N       -1.4599  -0.1187  1.3125
H       2.8259  -2.5533  0.4785
H       1.6422  -2.6470  -0.8219
H       -3.1854  -0.5994  -0.9288
H       -2.9770  -2.3478  -0.7123
H       1.7084  1.0676  -1.5029
H       1.3318  -0.2252  -2.3999
H       -1.8686  0.7968  1.2081
H       -1.1033  -0.1405  2.2521
H       -2.1864  -2.0863  1.5513
H       -3.4454  -0.8798  1.5255
H       0.3871  -2.2575  1.2116
H       1.3656  -1.0766  1.7248
H       3.5953  -0.8613  -1.6484
H       3.2072  -0.0108  -0.1339
H       -0.7484  -2.1639  -1.0597
H       -1.1834  -0.8441  -1.8878
