27

Co      -0.0822  -0.0415  -0.0285
Cl      -1.0864  1.6400  -1.2142
Cl      1.1980  1.5118  1.3975
C       2.7323  -0.7095  -0.8873
C       2.2483  -2.0744  -0.1118
C       -2.5244  -1.2701  -0.4652
C       -2.3521  -1.1454  1.0504
N       1.4075  0.0742  -1.1769
N       0.9851  -1.5088  0.8295
N       -1.0916  -1.3260  -0.9623
N       -1.3765  -0.0400  1.2463
H       2.9959  -2.4680  0.6035
H       1.8892  -2.8990  -0.7378
H       -3.0087  -0.4189  -0.9117
H       -3.0504  -2.1707  -0.7509
H       1.5681  1.0814  -1.0976
H       1.1080  -0.0643  -2.1369
H       -1.8312  0.8500  1.1199
H       -0.9974  -0.0005  2.1771
H       -1.9068  -2.0536  1.4355
H       -3.2614  -0.9600  1.6006
H       0.4880  -2.2744  1.2540
H       1.4251  -1.0081  1.5920
H       3.3740  -0.7356  -1.7950
H       3.2234  -0.0998  -0.1350
H       -0.7120  -2.2549  -0.8244
H       -1.0772  -1.1340  -1.9558
