27

Co      -0.0658  0.0059  -0.0445
Cl      -1.0404  1.5382  -1.1640
Cl      1.2023  1.4949  1.4167
C       2.6689  -0.7112  -0.8046
C       2.1343  -1.9457  -0.1139
C       -2.5220  -1.3128  -0.4521
C       -2.4020  -1.1398  1.0534
N       1.4914  0.0524  -1.3177
N       1.0774  -1.4737  0.8328
N       -1.1535  -1.3105  -1.0582
N       -1.4603  -0.0301  1.3393
H       2.9146  -2.4758  0.4171
H       1.6891  -2.6306  -0.8171
H       -3.0658  -0.4896  -0.8870
H       -3.0423  -2.2249  -0.6933
H       1.7162  1.0303  -1.3817
H       1.2489  -0.2393  -2.2441
H       -1.9126  0.8689  1.3175
H       -1.0470  -0.1092  2.2501
H       -2.0050  -2.0341  1.5092
H       -3.3687  -0.9561  1.4908
H       0.6010  -2.2559  1.2413
H       1.5179  -0.9703  1.5869
H       3.3521  -0.9564  -1.6012
H       3.1821  -0.0770  -0.0996
H       -0.7679  -2.2372  -1.0462
H       -1.2211  -1.0198  -2.0148
