27

Co      0.0076  0.0932  0.0321
Cl      -1.0726  1.5805  -1.2245
Cl      1.0857  1.3306  1.2608
C       2.6560  -0.7439  -0.8623
C       2.1944  -1.9561  -0.0538
C       -2.5071  -1.3419  -0.4450
C       -2.4371  -1.1243  1.0555
N       1.4984  0.1129  -1.2575
N       1.0729  -1.5496  0.8506
N       -1.1218  -1.2774  -1.0205
N       -1.4381  -0.0604  1.3894
H       3.0255  -2.3555  0.5153
H       1.8280  -2.7513  -0.7008
H       -3.0922  -0.5723  -0.9252
H       -2.9635  -2.3013  -0.6607
H       1.7874  1.0701  -1.3204
H       1.1577  -0.1321  -2.1721
H       -1.8713  0.8514  1.4306
H       -1.0440  -0.2200  2.3023
H       -2.1233  -2.0352  1.5558
H       -3.4159  -0.8651  1.4460
H       0.5010  -2.3575  1.0593
H       1.4527  -1.2153  1.7280
H       3.2055  -1.0704  -1.7456
H       3.3244  -0.1383  -0.2578
H       -0.7121  -2.1848  -1.0337
H       -1.1898  -0.9530  -1.9663
