27

Co      0.0748  -0.0066  0.0372
Cl      -1.1141  1.6639  -1.2512
Cl      1.0754  1.3184  1.2807
C       2.4751  -0.6673  -0.7598
C       1.9619  -1.7400  -0.1486
C       -2.3934  -1.2310  -0.4016
C       -2.3584  -1.0873  1.0362
N       1.5390  0.0354  -1.3761
N       1.1201  -1.5265  0.9657
N       -1.0698  -1.3769  -1.0751
N       -1.5024  -0.0517  1.4198
H       2.9103  -2.2080  0.1577
H       1.4780  -2.4353  -0.8145
H       -2.9220  -0.4378  -0.8911
H       -2.9617  -2.1463  -0.5261
H       1.8016  0.9861  -1.5581
H       1.2375  -0.3600  -2.2536
H       -1.9250  0.8508  1.2814
H       -1.2302  -0.1037  2.3797
H       -1.9776  -2.0138  1.4471
H       -3.3825  -0.9929  1.3909
H       0.6760  -2.4083  1.1869
H       1.5725  -1.2099  1.8043
H       3.2808  -1.0595  -1.4082
H       2.9530  -0.0743  -0.0093
H       -0.8267  -2.3474  -1.1632
H       -1.1779  -1.0079  -2.0015
