27

Co      0.0047  0.0013  -0.0217
Cl      -1.0920  1.5777  -1.1764
Cl      1.2120  1.4963  1.4210
C       2.7248  -0.7229  -0.8067
C       2.1419  -1.9413  -0.1327
C       -2.6444  -1.2959  -0.4453
C       -2.4309  -1.2166  1.0528
N       1.5512  0.0427  -1.3287
N       1.1446  -1.4307  0.8602
N       -1.2607  -1.3481  -1.0330
N       -1.5626  -0.0252  1.2608
H       2.9002  -2.5512  0.3530
H       1.6252  -2.5688  -0.8529
H       -3.1337  -0.4038  -0.8129
H       -3.2195  -2.1569  -0.7467
H       1.7801  1.0222  -1.4282
H       1.2911  -0.2786  -2.2358
H       -2.0705  0.8294  1.0460
H       -1.2506  0.0658  2.2189
H       -1.9035  -2.1002  1.4237
H       -3.3695  -1.1364  1.5996
H       0.6496  -2.1946  1.2930
H       1.6227  -0.9286  1.5911
H       3.4198  -0.9777  -1.5933
H       3.2384  -0.0950  -0.0902
H       -0.9302  -2.3013  -1.0195
H       -1.2993  -1.0590  -1.9936
