27

Co      0.0028  0.0371  0.0028
Cl      -1.0566  1.5386  -1.1670
Cl      1.1170  1.3659  1.3134
C       2.6767  -0.7007  -0.8293
C       2.1083  -1.9044  -0.1018
C       -2.5066  -1.2422  -0.4473
C       -2.3823  -1.1772  1.0604
N       1.5231  0.0821  -1.3454
N       1.0517  -1.4479  0.8471
N       -1.1131  -1.3040  -0.9932
N       -1.5254  0.0021  1.3466
H       2.8765  -2.4463  0.4200
H       1.6501  -2.5856  -0.8064
H       -2.9655  -0.3456  -0.8285
H       -3.0815  -2.0931  -0.7714
H       1.7550  1.0530  -1.4479
H       1.2394  -0.2376  -2.2524
H       -2.0289  0.8619  1.1889
H       -1.2011  0.0372  2.2916
H       -1.8853  -2.0669  1.4495
H       -3.3523  -1.1036  1.5454
H       0.5116  -2.2310  1.1622
H       1.4783  -1.0427  1.6561
H       3.3343  -1.0088  -1.6281
H       3.2297  -0.0710  -0.1544
H       -0.7647  -2.2420  -0.9273
H       -1.1298  -1.0485  -1.9642
