27

Co      -0.0085  -0.0584  -0.0117
Cl      -1.0867  1.5851  -1.2032
Cl      1.2201  1.5358  1.4308
C       2.8684  -0.7097  -0.8699
C       2.2143  -2.0616  -0.0708
C       -2.6618  -1.3991  -0.4685
C       -2.5374  -1.2239  1.1100
N       1.4905  0.0960  -1.3349
N       0.9954  -1.3408  0.7689
N       -1.2074  -1.1818  -0.9659
N       -1.4814  -0.0608  1.2646
H       2.7816  -2.7660  0.6113
H       1.7011  -2.6489  -0.8417
H       -3.2139  -0.5379  -0.8290
H       -3.0875  -2.3146  -0.8991
H       1.6286  1.1019  -1.3521
H       1.2493  -0.1689  -2.2703
H       -1.9253  0.8317  1.0894
H       -1.1293  0.0066  2.2122
H       -2.1907  -2.0982  1.6517
H       -3.4632  -0.8923  1.5760
H       0.3681  -2.0123  1.2149
H       1.4345  -0.8179  1.5165
H       3.4335  -0.9170  -1.7793
H       3.4421  -0.0337  -0.2416
H       -0.7589  -2.0886  -1.0867
H       -1.2333  -0.7439  -1.8785
