27

Co      -0.0018  -0.0570  -0.0164
Cl      -1.0736  1.5963  -1.1914
Cl      1.2032  1.5182  1.4196
C       2.6183  -0.6892  -0.7970
C       2.1066  -1.9291  -0.1069
C       -2.5823  -1.3244  -0.4583
C       -2.3821  -1.1391  1.0304
N       1.4169  0.0578  -1.2494
N       1.0383  -1.4286  0.8121
N       -1.1866  -1.3091  -1.0086
N       -1.3736  -0.0661  1.1951
H       2.8773  -2.4413  0.4525
H       1.6739  -2.6370  -0.8039
H       -3.1371  -0.5143  -0.8973
H       -3.0748  -2.2571  -0.6964
H       1.6139  1.0448  -1.3039
H       1.1393  -0.2193  -2.1681
H       -1.7991  0.8390  1.0508
H       -1.0274  -0.0352  2.1331
H       -1.9953  -2.0445  1.4720
H       -3.2958  -0.8858  1.5507
H       0.5305  -2.1913  1.2144
H       1.4832  -0.9440  1.5748
H       3.2701  -0.9098  -1.6271
H       3.1516  -0.0620  -0.1021
H       -0.8324  -2.2448  -1.0109
H       -1.2234  -1.0017  -1.9629
