27

Co      0.0769  0.0455  0.0239
Cl      -1.0564  1.5673  -1.2110
Cl      1.1025  1.3881  1.3180
C       2.5340  -0.7115  -0.8010
C       2.0233  -1.7810  -0.0405
C       -2.4464  -1.3393  -0.4275
C       -2.4642  -1.1321  1.0711
N       1.5348  0.1047  -1.4504
N       0.9964  -1.5507  0.8013
N       -1.1018  -1.3476  -1.0559
N       -1.5026  -0.0627  1.4776
H       2.8796  -2.2480  0.4173
H       1.6594  -2.4876  -0.7723
H       -2.9631  -0.5159  -0.8754
H       -2.9952  -2.2357  -0.6700
H       1.8411  1.0429  -1.6329
H       1.2499  -0.2838  -2.3352
H       -1.9145  0.8511  1.4935
H       -1.1455  -0.2406  2.4017
H       -2.2075  -2.0310  1.6374
H       -3.5034  -0.8769  1.3331
H       0.3609  -2.3987  0.8003
H       1.2833  -1.3629  1.7983
H       3.1191  -1.3033  -1.5536
H       3.2233  -0.0521  -0.2743
H       -0.7524  -2.2768  -1.1436
H       -1.2025  -0.9780  -1.9866
