27

Co      -0.0018  -0.0617  -0.0163
Cl      -1.0871  1.5873  -1.1869
Cl      1.2122  1.5182  1.4151
C       2.7457  -0.6860  -0.8892
C       2.1863  -2.0203  -0.1151
C       -2.6538  -1.3244  -0.4580
C       -2.4043  -1.1571  1.0479
N       1.4447  0.0978  -1.2134
N       1.0230  -1.3933  0.8949
N       -1.2411  -1.2864  -1.0355
N       -1.4144  -0.0479  1.1679
H       2.9051  -2.5276  0.5270
H       1.7056  -2.7636  -0.7504
H       -3.2356  -0.5231  -0.8918
H       -3.1198  -2.2748  -0.6918
H       1.5993  1.1066  -1.1605
H       1.1326  -0.0763  -2.1548
H       -1.8625  0.8391  0.9214
H       -1.1083  0.0806  2.1281
H       -1.9459  -2.0577  1.4367
H       -3.2917  -0.9486  1.6434
H       0.5117  -2.1256  1.3767
H       1.5202  -0.8593  1.6046
H       3.4079  -0.7520  -1.7729
H       3.2386  -0.0813  -0.1308
H       -0.9001  -2.2310  -1.1224
H       -1.2872  -0.8946  -1.9631
