27

Co      -0.0181  -0.0755  -0.0448
Cl      -1.1471  1.7278  -1.2641
Cl      1.2296  1.5771  1.4576
C       2.6725  -0.7317  -0.7896
C       2.1577  -1.9538  -0.1299
C       -2.5584  -1.2717  -0.3996
C       -2.4722  -1.2348  1.0702
N       1.5712  0.0541  -1.4427
N       1.1001  -1.6498  0.9042
N       -1.1231  -1.3095  -0.8563
N       -1.5407  -0.1091  1.2793
H       2.8502  -2.4613  0.5517
H       1.8608  -2.6700  -0.9045
H       -3.1223  -0.3888  -0.6832
H       -2.9306  -2.1709  -0.9858
H       1.6786  1.0736  -1.2783
H       1.1091  -0.0828  -2.3434
H       -1.8856  0.8145  1.0205
H       -1.0778  -0.0131  2.1805
H       -2.1173  -2.1942  1.4290
H       -3.3728  -0.9662  1.6100
H       0.5237  -2.4487  1.1091
H       1.2772  -1.0621  1.7557
H       3.2525  -0.8637  -1.7053
H       3.2767  -0.1958  -0.0742
H       -0.5569  -2.1695  -0.6705
H       -1.0084  -1.0440  -1.8267
