27

Co      0.0076  0.0807  0.0321
Cl      -1.0601  1.5512  -1.1953
Cl      1.0649  1.2930  1.2358
C       2.6378  -0.7163  -0.8964
C       2.1720  -1.9447  -0.0224
C       -2.4863  -1.2929  -0.4737
C       -2.3729  -1.1243  1.0608
N       1.4545  0.1557  -1.2193
N       1.0347  -1.5193  0.8594
N       -1.0915  -1.2669  -1.0220
N       -1.4218  -0.0019  1.3507
H       3.1434  -2.3472  0.3337
H       1.6716  -2.7137  -0.6082
H       -2.9041  -0.4554  -1.0279
H       -3.1456  -2.1750  -0.5443
H       1.8440  1.0899  -1.3687
H       1.4038  -0.1364  -2.2103
H       -2.0083  0.8371  1.3848
H       -1.1684  -0.1027  2.3196
H       -1.9004  -1.9682  1.5665
H       -3.3911  -1.0401  1.4458
H       0.5816  -2.3680  1.1748
H       1.6380  -1.3384  1.6997
H       3.3014  -1.2212  -1.6273
H       3.2193  0.0009  -0.3232
H       -0.8853  -2.2548  -1.0234
H       -1.2229  -1.0779  -2.0144
