27

Co      0.0249  0.0181  -0.0516
Cl      -1.1349  1.6568  -1.2392
Cl      1.2025  1.4903  1.4078
C       2.7910  -0.7169  -0.8565
C       2.2385  -2.0966  -0.1383
C       -2.6424  -1.3321  -0.4191
C       -2.5455  -1.2391  1.1060
N       1.5190  0.0599  -1.2994
N       1.1347  -1.5134  0.9563
N       -1.2005  -1.2571  -0.9535
N       -1.5863  -0.1043  1.3066
H       2.9978  -2.6448  0.4083
H       1.7211  -2.7800  -0.8013
H       -3.1815  -0.4845  -0.8295
H       -3.0988  -2.2494  -0.7721
H       1.7177  1.0526  -1.3353
H       1.2359  -0.1922  -2.2250
H       -2.0629  0.7691  1.1027
H       -1.2615  -0.0276  2.2673
H       -2.1289  -2.1463  1.5232
H       -3.4938  -1.0530  1.5876
H       0.6242  -2.2562  1.4311
H       1.6490  -0.9917  1.6616
H       3.5598  -0.7447  -1.6679
H       3.1842  -0.0997  -0.0303
H       -0.8111  -2.1882  -0.9640
H       -1.2562  -0.9491  -1.9077
