27

Co      0.0439  0.0382  -0.0170
Cl      -1.0527  1.5377  -1.1838
Cl      1.1078  1.3442  1.2991
C       2.5403  -0.6736  -0.8798
C       2.0866  -1.8889  -0.1028
C       -2.4463  -1.2936  -0.4291
C       -2.3698  -1.0394  1.0619
N       1.4334  0.1078  -1.1646
N       1.0725  -1.4619  0.9751
N       -1.1502  -1.3591  -1.2448
N       -1.4670  -0.0100  1.4300
H       3.1543  -2.2104  0.1838
H       1.5263  -2.7089  -0.5884
H       -2.9698  -0.5640  -1.0724
H       -3.1175  -2.2422  -0.2532
H       1.8081  1.0430  -1.3395
H       1.3355  -0.2037  -2.1362
H       -1.9979  0.8560  1.4222
H       -1.2641  -0.1311  2.4186
H       -1.9426  -1.9004  1.5549
H       -3.4351  -0.9980  1.3533
H       0.7174  -2.3232  1.4079
H       1.7740  -1.2006  1.7156
H       3.4070  -0.9999  -1.5087
H       2.9312  -0.0091  -0.1066
H       -1.0750  -2.3969  -1.5351
H       -1.4589  -0.9530  -2.1592
