27

Co      0.0128  0.0845  0.0328
Cl      -1.0466  1.5550  -1.2050
Cl      1.0454  1.2616  1.2298
C       2.5875  -0.6585  -0.8281
C       2.0850  -1.9297  -0.0569
C       -2.4277  -1.3243  -0.4827
C       -2.3752  -1.0800  1.0563
N       1.3998  0.1130  -1.2710
N       1.0332  -1.4848  0.8983
N       -1.0345  -1.2414  -1.0362
N       -1.3513  -0.0349  1.3875
H       3.0361  -2.4506  0.2063
H       1.4940  -2.5870  -0.6959
H       -2.8920  -0.5348  -1.0804
H       -3.0376  -2.2447  -0.5114
H       1.7458  1.0426  -1.5629
H       1.3550  -0.3322  -2.2193
H       -1.8891  0.8431  1.5206
H       -1.0605  -0.2354  2.3376
H       -2.0136  -1.9427  1.6212
H       -3.4076  -0.9029  1.3693
H       0.5943  -2.3126  1.2782
H       1.6956  -1.2807  1.6923
H       3.3816  -1.0960  -1.4773
H       3.0250  0.0811  -0.1673
H       -0.8133  -2.2196  -1.0796
H       -1.1846  -1.0112  -2.0099
