27

Co      -0.0818  -0.1050  -0.0431
Cl      -1.0623  1.5913  -1.1860
Cl      1.2242  1.5429  1.4441
C       2.6647  -0.7007  -0.7979
C       2.1199  -1.9300  -0.1221
C       -2.5061  -1.2902  -0.4454
C       -2.3805  -1.1310  1.0558
N       1.4549  0.0368  -1.2642
N       1.0385  -1.3989  0.7747
N       -1.1128  -1.2380  -0.9950
N       -1.4062  -0.0421  1.2501
H       2.8616  -2.4585  0.4688
H       1.6899  -2.6281  -0.8256
H       -3.0629  -0.4760  -0.8742
H       -2.9773  -2.2222  -0.7254
H       1.6264  1.0362  -1.2361
H       1.2477  -0.1858  -2.2225
H       -1.8315  0.8625  1.1122
H       -1.0330  -0.0100  2.1804
H       -1.9937  -2.0271  1.5159
H       -3.3221  -0.9023  1.5204
H       0.5987  -2.1645  1.2747
H       1.4915  -0.8162  1.4843
H       3.3258  -0.9209  -1.6178
H       3.1830  -0.0730  -0.0947
H       -0.7266  -2.1652  -1.0098
H       -1.1587  -0.9154  -1.9423
