27

Co      -0.0123  -0.0867  -0.0103
Cl      -1.1265  1.6980  -1.2704
Cl      1.2037  1.5286  1.4203
C       2.7691  -0.6826  -0.8861
C       2.1769  -2.0237  -0.1271
C       -2.5233  -1.3476  -0.4344
C       -2.4858  -1.1426  1.0989
N       1.4901  0.0634  -1.3233
N       0.9802  -1.4692  0.8956
N       -1.1112  -1.2880  -1.0272
N       -1.4590  -0.0907  1.3634
H       2.8896  -2.5520  0.5001
H       1.7046  -2.7303  -0.7955
H       -3.0864  -0.5534  -0.9084
H       -2.9807  -2.2978  -0.6942
H       1.6177  1.0693  -1.3122
H       1.2137  -0.1690  -2.2614
H       -1.8512  0.8294  1.2207
H       -1.1238  -0.0949  2.3162
H       -2.1899  -2.0542  1.6011
H       -3.4520  -0.8558  1.4830
H       0.4478  -2.2330  1.2698
H       1.4377  -1.0165  1.6703
H       3.5002  -0.7795  -1.6993
H       3.1975  -0.0492  -0.1107
H       -0.7519  -2.2251  -1.1806
H       -1.1890  -0.8426  -1.9320
