27

Co      0.0064  0.0491  -0.0048
Cl      -1.0467  1.5513  -1.1752
Cl      1.1117  1.3696  1.3253
C       2.5493  -0.7002  -0.7481
C       2.0213  -1.8059  -0.0862
C       -2.4130  -1.2422  -0.4439
C       -2.3675  -1.1555  1.0576
N       1.5283  0.0678  -1.4403
N       1.0817  -1.5384  0.8268
N       -1.0660  -1.3819  -1.0400
N       -1.5361  0.0133  1.4584
H       2.8670  -2.3710  0.2939
H       1.5817  -2.4258  -0.8562
H       -2.8192  -0.3147  -0.8229
H       -3.0733  -2.0460  -0.7540
H       1.8139  1.0132  -1.6427
H       1.2903  -0.3548  -2.3283
H       -2.0245  0.8875  1.4323
H       -1.1607  -0.0897  2.3776
H       -1.9346  -2.0390  1.5107
H       -3.3969  -1.0813  1.4160
H       0.5452  -2.3740  1.0109
H       1.4450  -1.2157  1.7109
H       3.2112  -1.2034  -1.4675
H       3.1427  -0.0406  -0.1442
H       -0.7301  -2.3221  -0.9409
H       -1.1064  -1.1704  -2.0229
