27

Co      0.1036  0.0748  0.0374
Cl      -1.0777  1.5689  -1.2070
Cl      1.0502  1.2806  1.2240
C       2.6017  -0.7157  -0.8559
C       2.1474  -1.9272  -0.0481
C       -2.4990  -1.2808  -0.4395
C       -2.4012  -1.1419  1.0690
N       1.4308  0.1350  -1.1961
N       1.0378  -1.4637  0.8304
N       -1.1272  -1.3503  -1.0680
N       -1.4977  -0.0050  1.3961
H       2.9623  -2.3200  0.5398
H       1.7719  -2.7287  -0.6871
H       -2.9819  -0.4197  -0.8510
H       -3.0812  -2.1523  -0.6927
H       1.7121  1.0898  -1.3080
H       1.0255  -0.1397  -2.0839
H       -1.9655  0.8722  1.2537
H       -1.2092  -0.0186  2.3518
H       -1.9977  -2.0359  1.5226
H       -3.3921  -0.9886  1.4815
H       0.3882  -2.2286  1.0196
H       1.4198  -1.1621  1.7193
H       3.1253  -1.0129  -1.7673
H       3.2830  -0.1192  -0.2520
H       -0.8152  -2.2929  -1.1245
H       -1.2116  -0.9942  -2.0066
