27

Co      -0.0291  -0.0074  0.0256
Cl      -1.0847  1.6083  -1.2119
Cl      1.1535  1.4393  1.3532
C       2.6804  -0.7070  -0.8281
C       2.1276  -1.9169  -0.1005
C       -2.5750  -1.3149  -0.4590
C       -2.3983  -1.1588  1.0239
N       1.5162  0.0655  -1.3386
N       1.0476  -1.4887  0.8466
N       -1.1407  -1.2297  -0.8961
N       -1.3791  -0.0893  1.1957
H       2.9024  -2.4473  0.4308
H       1.6910  -2.6145  -0.8068
H       -3.1473  -0.5228  -0.9130
H       -2.9962  -2.2744  -0.7426
H       1.7280  1.0478  -1.3824
H       1.2620  -0.2100  -2.2646
H       -1.8212  0.8111  1.0989
H       -1.0163  -0.0902  2.1251
H       -2.0011  -2.0766  1.4456
H       -3.3033  -0.9098  1.5699
H       0.5540  -2.2953  1.1749
H       1.4766  -1.0695  1.6527
H       3.3325  -1.0196  -1.6323
H       3.2407  -0.0750  -0.1627
H       -0.7261  -2.1415  -0.8012
H       -1.1103  -0.9892  -1.8720
