27

Co      -0.0335  -0.0431  0.0096
Cl      -1.1417  1.6831  -1.2302
Cl      1.2114  1.5205  1.4091
C       2.7137  -0.7517  -0.8240
C       2.1925  -1.9370  -0.1215
C       -2.6371  -1.2469  -0.4366
C       -2.3584  -1.2184  1.0161
N       1.6002  0.0855  -1.3644
N       1.1631  -1.6066  0.9288
N       -1.2400  -1.4090  -0.9622
N       -1.5158  -0.0159  1.2036
H       2.8787  -2.4627  0.5488
H       1.8585  -2.6571  -0.8750
H       -3.1793  -0.3394  -0.6936
H       -3.1064  -2.1145  -0.9348
H       1.7285  1.1042  -1.1749
H       1.0838  -0.0093  -2.2597
H       -1.9177  0.8773  0.9092
H       -1.0763  0.1281  2.1107
H       -1.8282  -2.1581  1.2678
H       -3.2133  -1.0871  1.7157
H       0.6040  -2.4055  1.1617
H       1.3681  -1.0073  1.7584
H       3.1959  -0.9213  -1.8110
H       3.4290  -0.2458  -0.1625
H       -0.7335  -2.2921  -0.7677
H       -1.1027  -1.1348  -1.9306
