27

Co      0.0641  0.0458  0.0756
Cl      -1.1034  1.6216  -1.2361
Cl      1.1293  1.3837  1.3267
C       2.5848  -0.7100  -0.7493
C       2.0375  -1.8047  -0.0928
C       -2.5717  -1.3857  -0.4668
C       -2.3989  -1.1085  1.0119
N       1.5441  0.0564  -1.3768
N       1.1811  -1.4863  0.8873
N       -1.2672  -1.4493  -1.1901
N       -1.4467  -0.0274  1.3785
H       2.8691  -2.4601  0.2200
H       1.4942  -2.3616  -0.8654
H       -3.1317  -0.5855  -0.9204
H       -3.1636  -2.2964  -0.5754
H       1.8295  0.9979  -1.6480
H       1.2299  -0.4144  -2.2228
H       -1.8713  0.8898  1.4055
H       -1.0902  -0.2082  2.3053
H       -2.0546  -2.0028  1.5167
H       -3.3847  -0.8933  1.4048
H       0.6339  -2.3034  1.0965
H       1.6089  -1.1690  1.7402
H       3.2119  -1.2185  -1.5026
H       3.2297  -0.0716  -0.1611
H       -0.9710  -2.4025  -1.3448
H       -1.3742  -1.0056  -2.0921
