27

Co      -0.0367  -0.0990  -0.0007
Cl      -1.0925  1.6382  -1.2270
Cl      1.2304  1.5753  1.4573
C       2.8021  -0.6599  -0.8483
C       2.1520  -2.0371  -0.0715
C       -2.6287  -1.4091  -0.4939
C       -2.4762  -1.1838  1.0754
N       1.4506  0.1074  -1.4187
N       0.9479  -1.4381  0.8467
N       -1.1582  -1.2064  -0.9283
N       -1.3414  -0.0868  1.2048
H       2.7513  -2.7786  0.5231
H       1.6150  -2.5801  -0.8748
H       -3.1830  -0.5717  -0.9006
H       -3.0399  -2.3448  -0.8905
H       1.5488  1.1206  -1.4308
H       1.2495  -0.1825  -2.3583
H       -1.7463  0.8356  1.1125
H       -0.9377  -0.0795  2.1280
H       -2.1762  -2.0762  1.6206
H       -3.3709  -0.7806  1.5729
H       0.3611  -2.1552  1.2388
H       1.3817  -0.9627  1.6238
H       3.4354  -0.8847  -1.6965
H       3.3103  0.0440  -0.2005
H       -0.6981  -2.1061  -0.9628
H       -1.1270  -0.8349  -1.8615
