27

Co      -0.0340  -0.0444  -0.0030
Cl      -1.0732  1.5941  -1.2077
Cl      1.2111  1.5394  1.4353
C       2.8010  -0.6828  -0.8628
C       2.1329  -1.9677  -0.1646
C       -2.6036  -1.3525  -0.4278
C       -2.4925  -1.1707  1.0500
N       1.5695  0.0270  -1.4484
N       0.9481  -1.4269  0.8692
N       -1.1558  -1.2133  -0.8993
N       -1.4288  -0.1481  1.2415
H       2.6646  -2.5423  0.6866
H       1.7811  -2.6802  -0.9140
H       -3.3421  -0.6215  -0.8038
H       -2.8041  -2.3908  -0.8841
H       1.5826  1.0592  -1.3697
H       1.0290  -0.1965  -2.3033
H       -1.7144  0.8187  1.0395
H       -0.9675  -0.1091  2.1371
H       -2.2341  -2.1554  1.4439
H       -3.3505  -0.7645  1.6168
H       0.3043  -2.1530  1.1393
H       1.1850  -0.8318  1.6810
H       3.4513  -0.6612  -1.7856
H       3.2956  -0.1443  -0.0543
H       -0.5588  -2.0568  -0.9073
H       -1.0681  -0.7545  -1.8017
