27

Co      0.0456  -0.0094  0.0657
Cl      -1.0800  1.6156  -1.2088
Cl      1.1126  1.3898  1.3220
C       2.6408  -0.6429  -0.8508
C       2.0350  -1.8648  -0.0893
C       -2.4894  -1.2799  -0.5010
C       -2.3258  -1.1299  1.0363
N       1.4392  0.0688  -1.3411
N       0.9144  -1.4095  0.8084
N       -1.0942  -1.4198  -1.0378
N       -1.3861  -0.0084  1.3143
H       2.9012  -2.4443  0.2466
H       1.4539  -2.4883  -0.7726
H       -2.7947  -0.3654  -1.0358
H       -3.2792  -2.0857  -0.5713
H       1.7190  1.0133  -1.6821
H       1.3880  -0.4410  -2.2634
H       -1.9572  0.8304  1.2332
H       -1.2096  -0.0244  2.3170
H       -1.8231  -1.9788  1.5036
H       -3.3232  -1.0777  1.4629
H       0.4070  -2.2360  1.0789
H       1.5333  -1.3056  1.6733
H       3.4562  -1.1290  -1.4589
H       3.0563  0.1285  -0.1957
H       -0.9936  -2.4508  -1.0335
H       -1.1713  -1.2367  -2.0312
