27

Co      -0.0748  0.0213  -0.0497
Cl      -1.1001  1.6445  -1.2282
Cl      1.2045  1.4990  1.4167
C       2.6929  -0.7312  -0.7597
C       2.1840  -2.0167  -0.1390
C       -2.5803  -1.3305  -0.4370
C       -2.4809  -1.2072  1.0520
N       1.5089  0.0013  -1.3337
N       1.1663  -1.5627  0.8603
N       -1.1166  -1.1683  -0.8138
N       -1.4385  -0.1488  1.2173
H       2.9897  -2.5745  0.3358
H       1.7281  -2.6715  -0.8680
H       -3.1620  -0.5335  -0.8869
H       -2.9452  -2.2976  -0.8002
H       1.7384  0.9824  -1.4061
H       1.3181  -0.3033  -2.2681
H       -1.8882  0.7558  1.1945
H       -1.0041  -0.1960  2.1252
H       -2.1286  -2.1346  1.4950
H       -3.4021  -0.9263  1.5505
H       0.7537  -2.3568  1.3516
H       1.6496  -1.0078  1.5684
H       3.4540  -0.9106  -1.5193
H       3.1220  -0.0937  0.0069
H       -0.6238  -2.0568  -0.5990
H       -1.0884  -1.0504  -1.8292
