27

Co      -0.0923  -0.0872  -0.0558
Cl      -1.1052  1.6757  -1.2435
Cl      1.2252  1.5719  1.4414
C       2.6684  -0.7484  -0.8420
C       2.2093  -1.9837  -0.0778
C       -2.5166  -1.3021  -0.4215
C       -2.4562  -1.1798  1.0742
N       1.5006  0.0786  -1.3028
N       1.0382  -1.6059  0.8073
N       -1.0624  -1.1625  -0.8235
N       -1.4159  -0.1210  1.2280
H       3.0385  -2.3659  0.5333
H       1.8954  -2.7920  -0.7434
H       -3.0789  -0.5012  -0.8729
H       -2.8978  -2.2638  -0.7958
H       1.7242  1.0775  -1.1359
H       1.3353  -0.0067  -2.3141
H       -1.8361  0.7851  1.1333
H       -1.0056  -0.1120  2.1467
H       -2.1261  -2.0928  1.5524
H       -3.3904  -0.8788  1.5286
H       0.6050  -2.4419  1.1616
H       1.4086  -1.1089  1.6125
H       3.2769  -1.0365  -1.6819
H       3.2579  -0.1204  -0.1984
H       -0.5900  -2.0574  -0.6848
H       -1.0501  -0.9794  -1.8207
