27

Co      -0.0526  -0.0415  -0.0962
Cl      -1.0560  1.5777  -1.1682
Cl      1.2284  1.5616  1.4481
C       2.6677  -0.6892  -0.8671
C       2.2156  -2.0806  -0.1009
C       -2.5540  -1.2716  -0.4482
C       -2.3918  -1.1726  1.0683
N       1.3663  0.1030  -1.2041
N       0.9796  -1.5313  0.8668
N       -1.1119  -1.2802  -0.9382
N       -1.4084  -0.0610  1.2113
H       3.0013  -2.4533  0.5817
H       1.8556  -2.9122  -0.7184
H       -3.0532  -0.4158  -0.8736
H       -3.0505  -2.1746  -0.7773
H       1.5440  1.1102  -1.1008
H       1.0964  -0.0192  -2.1766
H       -1.8693  0.8228  1.0459
H       -1.0239  0.0228  2.1397
H       -1.9519  -2.0785  1.4580
H       -3.3011  -0.9724  1.6185
H       0.4863  -2.2876  1.3193
H       1.4204  -0.9941  1.6083
H       3.3530  -0.6874  -1.7483
H       3.1121  -0.0710  -0.0852
H       -0.7168  -2.2044  -0.7942
H       -1.1217  -1.1099  -1.9418
