27

Co      0.0753  0.0009  0.0707
Cl      -1.1266  1.6994  -1.2867
Cl      1.0963  1.3492  1.2995
C       2.5686  -0.6967  -0.7169
C       2.0207  -1.8159  -0.1152
C       -2.4170  -1.3390  -0.4443
C       -2.4166  -1.0976  1.0616
N       1.4887  0.0035  -1.3399
N       1.1268  -1.4357  0.7964
N       -1.1060  -1.4451  -1.1675
N       -1.4876  -0.0266  1.5225
H       2.8101  -2.4615  0.2633
H       1.5122  -2.3710  -0.9065
H       -2.8964  -0.4884  -0.8856
H       -3.0554  -2.1998  -0.6260
H       1.7314  0.9464  -1.6711
H       1.1670  -0.5229  -2.1728
H       -1.8865  0.8985  1.5196
H       -1.1600  -0.2095  2.4648
H       -2.1524  -1.9941  1.6281
H       -3.4689  -0.8747  1.2991
H       0.5423  -2.2222  1.0183
H       1.5456  -1.1172  1.6536
H       3.2269  -1.1312  -1.4624
H       3.1502  -0.0520  -0.0904
H       -0.8282  -2.4032  -1.3421
H       -1.2338  -0.9889  -2.0630
