27

Co      0.0064  0.0445  -0.0046
Cl      -1.0602  1.5423  -1.1707
Cl      1.1207  1.3696  1.3208
C       2.6767  -0.6971  -0.8403
C       2.1009  -1.8971  -0.0944
C       -2.4845  -1.2422  -0.4436
C       -2.3897  -1.1735  1.0751
N       1.5562  0.1078  -1.4043
N       1.0664  -1.5031  0.9096
N       -1.1205  -1.3592  -1.0668
N       -1.5769  0.0315  1.4313
H       2.8949  -2.4574  0.3684
H       1.6133  -2.5525  -0.8027
H       -2.9177  -0.3235  -0.8174
H       -3.1183  -2.0636  -0.7493
H       1.7992  1.0751  -1.4994
H       1.2836  -0.2118  -2.3150
H       -2.0878  0.8876  1.3030
H       -1.2416  0.0261  2.3726
H       -1.8853  -2.0522  1.4753
H       -3.3928  -1.1441  1.5086
H       0.5264  -2.3083  1.1732
H       1.4820  -1.1310  1.7408
H       3.3491  -1.0456  -1.6133
H       3.2297  -0.0599  -0.1728
H       -0.7978  -2.3083  -1.0524
H       -1.1703  -1.0632  -2.0231
