27

Co      -0.0834  -0.0874  -0.0630
Cl      -1.1169  1.6757  -1.2283
Cl      1.2129  1.5168  1.4338
C       2.6569  -0.6992  -0.7412
C       2.1188  -1.9477  -0.1555
C       -2.4993  -1.2317  -0.4109
C       -2.3964  -1.1909  1.0618
N       1.5493  0.0529  -1.4278
N       1.1866  -1.5953  0.9771
N       -1.0875  -1.2503  -0.9131
N       -1.5122  -0.0436  1.2860
H       2.8056  -2.5709  0.4159
H       1.7031  -2.5651  -0.9534
H       -3.0930  -0.3588  -0.6825
H       -2.8636  -2.1369  -0.9713
H       1.6303  1.0795  -1.2485
H       1.1341  -0.0938  -2.3417
H       -1.8713  0.8819  1.0628
H       -1.0050  0.0393  2.1667
H       -1.9896  -2.1401  1.4006
H       -3.3028  -0.9788  1.6152
H       0.7253  -2.3762  1.4001
H       1.4620  -0.8405  1.6885
H       3.2945  -0.7730  -1.6331
H       3.1947  -0.1735  0.0320
H       -0.5090  -2.1057  -0.7482
H       -0.9904  -0.9507  -1.8681
