27

Co      0.0880  0.0653  0.0441
Cl      -1.0473  1.5075  -1.1725
Cl      1.0701  1.2995  1.2580
C       2.5238  -0.6960  -0.8060
C       2.0303  -1.7995  -0.0176
C       -2.5442  -1.3472  -0.4668
C       -2.4029  -1.1180  1.0408
N       1.4639  0.1393  -1.2918
N       1.0879  -1.4391  0.8420
N       -1.1865  -1.2499  -1.0684
N       -1.4189  -0.0281  1.2995
H       3.0247  -2.3204  0.1827
H       1.4564  -2.4517  -0.6742
H       -3.0324  -0.5508  -1.0135
H       -3.1699  -2.2614  -0.4899
H       1.8898  1.0532  -1.5750
H       1.4350  -0.2915  -2.2416
H       -1.9762  0.8261  1.3157
H       -1.1985  -0.1374  2.2756
H       -1.9888  -1.9591  1.6030
H       -3.4255  -0.9659  1.3959
H       0.6241  -2.2849  1.1352
H       1.6961  -1.2742  1.6825
H       3.1975  -1.3954  -1.4594
H       3.1474  0.0387  -0.2903
H       -1.0057  -2.2448  -1.2099
H       -1.3691  -0.9456  -2.0215
