27

Co      -0.0282  -0.0496  0.0154
Cl      -1.1077  1.6561  -1.2348
Cl      1.1765  1.4788  1.3826
C       2.6446  -0.6923  -0.8309
C       2.1175  -1.9150  -0.0876
C       -2.5530  -1.3176  -0.4609
C       -2.3726  -1.1331  1.0303
N       1.5080  0.1078  -1.3616
N       1.0761  -1.5688  0.9422
N       -1.1591  -1.3152  -1.0056
N       -1.3838  -0.0489  1.2473
H       2.9401  -2.4583  0.3573
H       1.6404  -2.5869  -0.7921
H       -3.0994  -0.5062  -0.9130
H       -3.0524  -2.2477  -0.6957
H       1.7171  1.0947  -1.3429
H       1.2731  -0.1208  -2.3079
H       -1.8167  0.8562  1.1662
H       -1.0071  -0.0764  2.1730
H       -1.9708  -2.0371  1.4658
H       -3.2997  -0.9117  1.5386
H       0.6128  -2.4029  1.2493
H       1.5051  -1.1524  1.7512
H       3.2976  -1.0261  -1.6259
H       3.2131  -0.0584  -0.1756
H       -0.7923  -2.2464  -0.9898
H       -1.1701  -1.0094  -1.9584
