27

Co      -0.0960  0.0197  -0.0059
Cl      -1.1173  1.6454  -1.2336
Cl      1.2171  1.4996  1.4134
C       2.7908  -0.7652  -0.8178
C       2.2216  -1.9890  -0.1337
C       -2.6198  -1.3430  -0.4461
C       -2.4644  -1.1966  1.0463
N       1.6258  0.0230  -1.3597
N       1.2101  -1.5471  0.8897
N       -1.2132  -1.2588  -0.9597
N       -1.5053  -0.0782  1.2798
H       3.0079  -2.5890  0.3285
H       1.7210  -2.6218  -0.8549
H       -3.1996  -0.5377  -0.8848
H       -3.0644  -2.2896  -0.7287
H       1.8671  1.0049  -1.3845
H       1.4256  -0.2383  -2.3030
H       -1.9786  0.8109  1.2532
H       -1.0900  -0.1402  2.1975
H       -2.0338  -2.0994  1.4685
H       -3.4004  -1.0128  1.5524
H       0.8045  -2.3632  1.3420
H       1.6883  -1.0145  1.6115
H       3.4836  -1.0491  -1.5997
H       3.3196  -0.1398  -0.1147
H       -0.7756  -2.1722  -0.8843
H       -1.2237  -1.0107  -1.9299
