27

Co      -0.0165  -0.0931  -0.0271
Cl      -1.1434  1.7189  -1.2656
Cl      1.2154  1.5419  1.4397
C       2.6975  -0.7041  -0.7017
C       2.1381  -2.0010  -0.0979
C       -2.6056  -1.3434  -0.4435
C       -2.4906  -1.2474  1.0756
N       1.4826  0.0629  -1.4398
N       1.1579  -1.5421  0.8589
N       -1.1312  -1.1918  -0.8194
N       -1.4481  -0.0988  1.2100
H       2.6986  -2.7810  0.5134
H       1.7057  -2.4979  -1.0157
H       -3.1934  -0.4395  -0.6649
H       -2.9113  -2.2439  -1.1469
H       1.5479  1.0860  -1.3653
H       1.0651  -0.1822  -2.3211
H       -1.7795  0.8445  1.0084
H       -0.9304  -0.0241  2.0894
H       -2.2056  -2.1879  1.5405
H       -3.3634  -0.8269  1.6204
H       0.5429  -2.2426  1.2303
H       1.3891  -0.8330  1.6199
H       3.2000  -0.8597  -1.6717
H       3.3392  -0.1203  -0.0623
H       -0.4735  -2.0153  -0.6518
H       -0.9799  -0.8771  -1.7728
