27

Co      0.0037  0.0045  -0.0126
Cl      -1.0660  1.5954  -1.1945
Cl      1.1310  1.4054  1.3473
C       2.4833  -0.6942  -0.7801
C       2.0034  -1.7611  -0.1411
C       -2.3879  -1.2048  -0.4092
C       -2.3244  -1.0983  1.0292
N       1.5373  0.0341  -1.3643
N       1.0754  -1.5632  0.8951
N       -1.0720  -1.4223  -1.0758
N       -1.5093  -0.0259  1.4153
H       2.9618  -2.1347  0.2568
H       1.6182  -2.5369  -0.7848
H       -2.8695  -0.3755  -0.8842
H       -3.0122  -2.0839  -0.5482
H       1.8191  0.9878  -1.4814
H       1.2622  -0.2964  -2.2688
H       -1.9611  0.8615  1.3201
H       -1.1865  -0.0900  2.3546
H       -1.8842  -2.0142  1.4046
H       -3.3428  -1.0628  1.4164
H       0.6446  -2.4596  1.0994
H       1.4749  -1.2303  1.7549
H       3.2571  -1.0826  -1.4506
H       2.9844  -0.0954  -0.0482
H       -0.8135  -2.3909  -1.0395
H       -1.1609  -1.1759  -2.0455
