27

Co      -0.0367  -0.1109  -0.0014
Cl      -1.0800  1.6090  -1.1977
Cl      1.2095  1.5377  1.4323
C       2.6646  -0.6788  -0.8279
C       2.0731  -1.8752  -0.1060
C       -2.5697  -1.3063  -0.4534
C       -2.3866  -1.1486  1.0340
N       1.5059  0.0733  -1.3743
N       0.9930  -1.4388  0.8418
N       -1.1495  -1.2288  -0.9323
N       -1.3743  -0.0743  1.1654
H       2.8234  -2.4386  0.4310
H       1.6153  -2.5485  -0.8233
H       -3.1410  -0.5058  -0.8915
H       -3.0054  -2.2586  -0.7386
H       1.6707  1.0734  -1.3443
H       1.3027  -0.1634  -2.3266
H       -1.7967  0.8281  0.9773
H       -1.0380  0.0027  2.1084
H       -1.9852  -2.0550  1.4664
H       -3.2902  -0.8966  1.5744
H       0.5243  -2.2415  1.2099
H       1.4211  -0.9711  1.6231
H       3.3372  -1.0070  -1.6062
H       3.2019  -0.0343  -0.1575
H       -0.7694  -2.1568  -0.9344
H       -1.1422  -0.9066  -1.8817
