27

Co      -0.0272  -0.0542  0.0070
Cl      -1.0996  1.6165  -1.2161
Cl      1.2331  1.5594  1.4402
C       2.8154  -0.6946  -0.8671
C       2.2161  -2.0702  -0.0517
C       -2.7253  -1.4345  -0.5008
C       -2.4707  -1.1923  1.0546
N       1.4621  0.1407  -1.3415
N       1.0400  -1.4645  0.8887
N       -1.2701  -1.2269  -0.9762
N       -1.3465  -0.0706  1.1448
H       2.8547  -2.7759  0.5234
H       1.6732  -2.6483  -0.8185
H       -3.3192  -0.6174  -0.9040
H       -3.1325  -2.3886  -0.8467
H       1.6113  1.1490  -1.3079
H       1.2274  -0.0813  -2.2890
H       -1.7771  0.8401  1.0579
H       -0.9382  -0.0574  2.0656
H       -2.1122  -2.0775  1.5645
H       -3.3374  -0.8138  1.6305
H       0.4694  -2.1816  1.3119
H       1.4923  -0.9599  1.6420
H       3.3749  -0.9205  -1.7794
H       3.4078  -0.0195  -0.2535
H       -0.8113  -2.1279  -1.0229
H       -1.2538  -0.8445  -1.9072
