27

Co      0.0641  0.0376  0.0712
Cl      -1.0908  1.5924  -1.2069
Cl      1.1085  1.3462  1.3017
C       2.6421  -0.6545  -0.8099
C       2.0429  -1.8663  -0.1103
C       -2.5639  -1.3231  -0.4838
C       -2.3366  -1.1085  1.0166
N       1.5058  0.0986  -1.3726
N       1.1076  -1.4523  0.9859
N       -1.2375  -1.4703  -1.2028
N       -1.4422  0.0267  1.3578
H       2.8224  -2.5471  0.2469
H       1.4357  -2.4237  -0.8483
H       -3.0654  -0.4730  -0.9130
H       -3.2095  -2.1924  -0.6131
H       1.7178  1.0616  -1.5973
H       1.1567  -0.3383  -2.2227
H       -1.9044  0.9188  1.2750
H       -1.1238  -0.0401  2.3016
H       -1.8750  -1.9989  1.4284
H       -3.2967  -0.9978  1.5067
H       0.5510  -2.2390  1.2591
H       1.5912  -1.1140  1.7960
H       3.3388  -0.9806  -1.5761
H       3.1740  -0.0202  -0.1219
H       -0.9834  -2.4404  -1.3333
H       -1.3108  -1.0340  -2.1086
