27

Co      0.0858  0.0474  0.0602
Cl      -1.0862  1.6269  -1.2369
Cl      1.1167  1.3764  1.3239
C       2.5252  -0.6895  -0.6885
C       2.0144  -1.8330  -0.1209
C       -2.5099  -1.3784  -0.4686
C       -2.3925  -1.0941  1.0145
N       1.4106  -0.0182  -1.2702
N       1.1197  -1.3945  0.7530
N       -1.1851  -1.4538  -1.1449
N       -1.3893  -0.0648  1.3835
H       2.8012  -2.4544  0.2927
H       1.5314  -2.4150  -0.9060
H       -3.0394  -0.5704  -0.9338
H       -3.1036  -2.2805  -0.5992
H       1.6661  0.9188  -1.6788
H       1.0444  -0.5972  -2.0710
H       -1.7840  0.8704  1.4195
H       -1.0387  -0.2572  2.3114
H       -2.1287  -2.0057  1.5526
H       -3.3833  -0.8089  1.3603
H       0.5172  -2.1495  1.0169
H       1.5568  -1.0564  1.5890
H       3.1905  -1.0487  -1.4554
H       3.0819  -0.0468  -0.0343
H       -0.8877  -2.4024  -1.2360
H       -1.2883  -1.0763  -2.0687
