27

Co      -0.0064  -0.0617  0.0048
Cl      -1.1175  1.6434  -1.2267
Cl      1.1818  1.4715  1.3707
C       2.7574  -0.7001  -0.8938
C       2.2190  -2.0390  -0.1104
C       -2.6211  -1.3104  -0.4533
C       -2.4019  -1.1548  1.0549
N       1.4517  0.1002  -1.1830
N       1.0534  -1.4236  0.9043
N       -1.1990  -1.2701  -1.0098
N       -1.4168  -0.0456  1.1936
H       2.9495  -2.5300  0.5270
H       1.7453  -2.7940  -0.7387
H       -3.1912  -0.5044  -0.8895
H       -3.0824  -2.2584  -0.7058
H       1.6109  1.1090  -1.1044
H       1.1350  -0.0436  -2.1337
H       -1.8648  0.8415  0.9518
H       -1.1130  0.0760  2.1562
H       -1.9506  -2.0577  1.4484
H       -3.2987  -0.9486  1.6317
H       0.5538  -2.1654  1.3861
H       1.5529  -0.8920  1.6163
H       3.3916  -0.7660  -1.8010
H       3.2783  -0.1070  -0.1495
H       -0.8487  -2.2099  -1.0780
H       -1.2335  -0.8875  -1.9397
