27

Co      -0.0255  0.0006  0.0182
Cl      -1.1224  1.6338  -1.2162
Cl      1.1816  1.4532  1.3766
C       2.8568  -0.6968  -0.8160
C       2.2030  -2.0579  -0.1093
C       -2.6753  -1.3158  -0.4800
C       -2.4259  -1.2494  1.0575
N       1.5644  0.1165  -1.4562
N       1.1525  -1.5120  0.9823
N       -1.2315  -1.3205  -0.9675
N       -1.5129  0.0085  1.2563
H       2.7046  -2.8888  0.5330
H       1.6761  -2.5460  -0.9806
H       -3.2154  -0.3669  -0.6793
H       -3.1046  -2.1640  -1.1030
H       1.6104  1.1442  -1.3872
H       1.0565  -0.1204  -2.3149
H       -1.9252  0.9094  1.0279
H       -1.0234  0.1116  2.1468
H       -1.9425  -2.1706  1.3933
H       -3.2798  -1.0312  1.7314
H       0.4984  -2.1987  1.3389
H       1.4329  -0.8504  1.7368
H       3.3681  -0.7590  -1.8238
H       3.4801  -0.1300  -0.1312
H       -0.6458  -2.1743  -0.8368
H       -1.0738  -0.9554  -1.9037
