27

Co      -0.1125  -0.0962  -0.0257
Cl      -1.0883  1.6168  -1.2055
Cl      1.2646  1.6156  1.4751
C       2.7546  -0.7721  -0.8843
C       2.2216  -1.9446  -0.0845
C       -2.6109  -1.3286  -0.4390
C       -2.4347  -1.1752  1.0468
N       1.5773  0.0722  -1.3003
N       1.0369  -1.5046  0.7648
N       -1.1938  -1.2141  -0.9215
N       -1.4289  -0.0821  1.1801
H       2.9938  -2.3670  0.5776
H       1.8854  -2.7450  -0.7457
H       -3.2088  -0.5461  -0.8842
H       -3.0175  -2.3016  -0.7323
H       1.7969  1.0755  -1.1189
H       1.3963  -0.0002  -2.3075
H       -1.8654  0.8122  1.0475
H       -1.0463  -0.0405  2.1100
H       -2.0267  -2.0724  1.4885
H       -3.3413  -0.9248  1.5790
H       0.5990  -2.3313  1.1316
H       1.4109  -0.9945  1.5593
H       3.3080  -1.1242  -1.7491
H       3.4158  -0.1518  -0.2829
H       -0.7601  -2.1275  -0.8894
H       -1.1987  -0.9320  -1.8859
