27

Co      -0.0047  -0.0028  0.0158
Cl      -1.0928  1.6479  -1.2306
Cl      1.0969  1.3550  1.2956
C       2.4950  -0.7119  -0.7737
C       2.0435  -1.7872  -0.1437
C       -2.3773  -1.1908  -0.4082
C       -2.3147  -1.0996  1.0215
N       1.5112  0.0107  -1.2750
N       1.0911  -1.5384  0.8418
N       -1.0225  -1.3507  -0.9765
N       -1.4601  -0.0530  1.3563
H       2.9878  -2.1260  0.3083
H       1.6947  -2.6005  -0.7768
H       -2.8729  -0.3789  -0.8929
H       -2.9379  -2.0970  -0.5843
H       1.7866  0.9680  -1.3737
H       1.2204  -0.2895  -2.1852
H       -1.9045  0.8381  1.2364
H       -1.1507  -0.0837  2.3017
H       -1.8889  -2.0289  1.3905
H       -3.3093  -1.0223  1.4416
H       0.6720  -2.4220  1.0978
H       1.5039  -1.1747  1.6819
H       3.2260  -1.0598  -1.4934
H       3.0242  -0.1322  -0.0484
H       -0.7289  -2.3036  -0.8700
H       -1.0667  -1.1542  -1.9632
