27

Co      0.0037  0.0120  -0.0075
Cl      -1.0786  1.6246  -1.2237
Cl      1.1519  1.4430  1.3724
C       2.5385  -0.7101  -0.7399
C       2.0477  -1.8364  -0.0849
C       -2.4339  -1.3076  -0.4411
C       -2.4054  -1.1335  1.0577
N       1.5037  0.0552  -1.4087
N       1.0997  -1.5799  0.8307
N       -1.0937  -1.3955  -1.0675
N       -1.4850  -0.0341  1.4504
H       2.9114  -2.3794  0.2969
H       1.6221  -2.4689  -0.8493
H       -2.8985  -0.4370  -0.8673
H       -3.0467  -2.1614  -0.6958
H       1.7838  1.0047  -1.5851
H       1.2697  -0.3415  -2.3049
H       -1.9193  0.8734  1.4856
H       -1.0819  -0.2026  2.3612
H       -2.0796  -2.0267  1.5761
H       -3.4321  -0.9425  1.3672
H       0.5768  -2.4210  1.0201
H       1.4615  -1.2436  1.7122
H       3.1950  -1.1856  -1.4716
H       3.1319  -0.0518  -0.1345
H       -0.7465  -2.3315  -1.0419
H       -1.1675  -1.1258  -2.0296
