27

Co      0.0028  0.0418  0.0026
Cl      -1.0431  1.5476  -1.1715
Cl      1.1080  1.3659  1.3179
C       2.5493  -0.7039  -0.7371
C       2.0286  -1.8133  -0.0936
C       -2.4351  -1.2422  -0.4476
C       -2.3602  -1.1592  1.0429
N       1.4952  0.0421  -1.3814
N       1.0670  -1.4832  0.7642
N       -1.0586  -1.3267  -0.9664
N       -1.4845  -0.0161  1.3738
H       2.8486  -2.3600  0.3455
H       1.6185  -2.4590  -0.8599
H       -2.8670  -0.3367  -0.8340
H       -3.0365  -2.0754  -0.7761
H       1.7697  0.9911  -1.5912
H       1.2461  -0.3806  -2.2657
H       -1.9656  0.8617  1.3182
H       -1.1202  -0.0787  2.2966
H       -1.9346  -2.0537  1.4849
H       -3.3564  -1.0408  1.4528
H       0.5305  -2.2967  0.9999
H       1.4413  -1.1274  1.6263
H       3.1965  -1.1666  -1.4822
H       3.1427  -0.0516  -0.1258
H       -0.6970  -2.2559  -0.8158
H       -1.0660  -1.1557  -1.9640
