27

Co      -0.0028  -0.0543  -0.0026
Cl      -1.1212  1.6471  -1.2303
Cl      1.1855  1.4752  1.3781
C       2.7574  -0.6964  -0.9049
C       2.2117  -2.0317  -0.1031
C       -2.5990  -1.3104  -0.4496
C       -2.4093  -1.1511  1.0697
N       1.4849  0.1259  -1.2419
N       1.0681  -1.4789  0.9668
N       -1.2064  -1.3253  -1.0834
N       -1.4683  -0.0162  1.2783
H       2.9679  -2.5410  0.4754
H       1.7085  -2.7609  -0.7350
H       -3.1433  -0.4823  -0.8784
H       -3.1192  -2.2290  -0.6837
H       1.6551  1.1310  -1.1559
H       1.1791  -0.0178  -2.1963
H       -1.9237  0.8672  1.0659
H       -1.1534  0.0649  2.2372
H       -1.9506  -2.0430  1.4741
H       -3.3392  -0.9891  1.5949
H       0.5685  -2.2427  1.3971
H       1.5566  -0.9804  1.7010
H       3.4063  -0.8028  -1.7863
H       3.2783  -0.0960  -0.1679
H       -0.8818  -2.2762  -1.2032
H       -1.2740  -0.9023  -1.9986
