27

Co      -0.1092  -0.0554  -0.0011
Cl      -1.0734  1.6033  -1.2064
Cl      1.1745  1.4639  1.3776
C       2.7268  -0.7185  -0.8291
C       2.1409  -1.9177  -0.1157
C       -2.4988  -1.2807  -0.4461
C       -2.3967  -1.1507  1.0492
N       1.5542  0.0444  -1.3533
N       1.0478  -1.4591  0.8092
N       -1.0670  -1.1586  -0.8825
N       -1.4118  -0.0654  1.2506
H       2.8867  -2.4644  0.4472
H       1.7070  -2.6057  -0.8286
H       -3.0730  -0.4845  -0.8899
H       -2.8988  -2.2395  -0.7715
H       1.7405  1.0392  -1.3146
H       1.3704  -0.1765  -2.3189
H       -1.8536  0.8346  1.1603
H       -1.0218  -0.0650  2.1725
H       -1.9996  -2.0592  1.4895
H       -3.3296  -0.9264  1.5396
H       0.6222  -2.2686  1.2352
H       1.4849  -0.9417  1.5623
H       3.3881  -1.0308  -1.6231
H       3.2722  -0.0861  -0.1553
H       -0.6203  -2.0619  -0.8001
H       -1.0456  -0.9029  -1.8513
