27

Co      -0.0076  -0.1035  -0.0270
Cl      -1.0836  1.6126  -1.2014
Cl      1.2132  1.5378  1.4397
C       2.6500  -0.6824  -0.8207
C       2.0803  -1.8933  -0.1059
C       -2.5222  -1.2990  -0.4388
C       -2.4085  -1.1449  1.0705
N       1.4881  0.0773  -1.3495
N       1.0150  -1.4394  0.8461
N       -1.1496  -1.3168  -1.0569
N       -1.4695  -0.0303  1.3083
H       2.8418  -2.4460  0.4231
H       1.6149  -2.5626  -0.8160
H       -3.0385  -0.4510  -0.8514
H       -3.0640  -2.1928  -0.7092
H       1.6676  1.0700  -1.3522
H       1.2595  -0.1777  -2.2909
H       -1.8992  0.8647  1.1205
H       -1.1440  0.0172  2.2585
H       -2.0143  -2.0330  1.5358
H       -3.3744  -0.9516  1.5012
H       0.5136  -2.2242  1.2064
H       1.4393  -0.9721  1.6278
H       3.3229  -0.9783  -1.6060
H       3.1801  -0.0414  -0.1395
H       -0.8244  -2.2667  -1.1614
H       -1.2227  -0.9214  -1.9806
