27

Co      -0.0297  0.0014  0.0038
Cl      -1.0803  1.5776  -1.1916
Cl      1.2243  1.5551  1.4286
C       2.7440  -0.7716  -0.8917
C       2.2110  -1.9382  -0.0749
C       -2.6871  -1.3600  -0.4464
C       -2.4693  -1.2054  1.0297
N       1.5806  0.0767  -1.3214
N       1.0230  -1.5095  0.7690
N       -1.2565  -1.2548  -0.8993
N       -1.4431  -0.1171  1.1583
H       2.9902  -2.3498  0.5833
H       1.8832  -2.7484  -0.7350
H       -3.2830  -0.5789  -0.8963
H       -3.0957  -2.3337  -0.7281
H       1.8396  1.0593  -1.2777
H       1.3210  -0.0971  -2.2725
H       -1.8964  0.7694  1.0330
H       -1.0903  -0.0905  2.0958
H       -2.0585  -2.1146  1.4501
H       -3.3591  -0.9469  1.6038
H       0.4867  -2.3277  1.0079
H       1.3778  -1.1279  1.6360
H       3.3020  -1.1433  -1.7501
H       3.4119  -0.1462  -0.2958
H       -0.8328  -2.1685  -0.8270
H       -1.2441  -1.0128  -1.8790
