27

Co      -0.1119  -0.1050  -0.0039
Cl      -1.0927  1.6474  -1.2257
Cl      1.1938  1.4998  1.3996
C       2.6910  -0.7075  -0.8208
C       2.1381  -1.9232  -0.1101
C       -2.4988  -1.2835  -0.4516
C       -2.3637  -1.1286  1.0410
N       1.5129  0.0610  -1.3175
N       1.0616  -1.4839  0.8423
N       -1.0780  -1.1889  -0.9184
N       -1.3649  -0.0544  1.2176
H       2.9060  -2.4644  0.4251
H       1.6933  -2.6112  -0.8175
H       -3.0730  -0.4900  -0.9009
H       -2.9180  -2.2423  -0.7467
H       1.6854  1.0640  -1.2236
H       1.3373  -0.1131  -2.2996
H       -1.7902  0.8539  1.1135
H       -0.9722  -0.0401  2.1394
H       -1.9693  -2.0344  1.4840
H       -3.2855  -0.8878  1.5451
H       0.6663  -2.2989  1.2986
H       1.5097  -0.9362  1.5761
H       3.3385  -1.0004  -1.6313
H       3.2446  -0.0805  -0.1498
H       -0.6533  -2.1005  -0.8636
H       -1.0649  -0.9084  -1.8789
