27

Co      -0.0052  0.0006  -0.0051
Cl      -1.1019  1.6082  -1.2058
Cl      1.1767  1.4708  1.3665
C       2.7916  -0.7405  -0.9159
C       2.2496  -2.0230  -0.1148
C       -2.5990  -1.2625  -0.4237
C       -2.4198  -1.1994  1.0643
N       1.5587  0.1115  -1.2961
N       1.0359  -1.5201  0.9017
N       -1.1984  -1.3746  -1.0176
N       -1.5566  -0.0167  1.3198
H       2.8634  -2.4466  0.7589
H       1.9660  -2.8551  -0.7873
H       -3.1788  -0.3928  -0.7103
H       -3.0267  -2.1611  -0.9002
H       1.6548  1.1356  -1.0971
H       0.9484  0.0519  -2.1816
H       -1.9391  0.8851  1.0216
H       -1.1393  0.1077  2.2362
H       -1.9603  -2.1432  1.3613
H       -3.3079  -1.0315  1.6753
H       0.3672  -2.2586  1.1150
H       1.2342  -0.9501  1.7490
H       3.2689  -0.7275  -1.9740
H       3.4625  -0.2502  -0.1961
H       -0.6922  -2.2545  -0.9709
H       -1.1326  -0.9741  -1.9438
