27

Co      -0.0759  -0.0349  -0.0761
Cl      -1.0933  1.5957  -1.1940
Cl      1.2539  1.5653  1.4767
C       2.8636  -0.7089  -0.7967
C       2.2128  -2.0900  -0.1177
C       -2.6495  -1.3458  -0.4416
C       -2.5350  -1.2685  1.1091
N       1.5779  0.0951  -1.5025
N       1.1513  -1.5215  0.9531
N       -1.1948  -1.1869  -0.9215
N       -1.5732  -0.0469  1.3013
H       2.7193  -2.8996  0.5525
H       1.7128  -2.5878  -0.9871
H       -3.2649  -0.4424  -0.6515
H       -2.9613  -2.2457  -1.1250
H       1.6238  1.1310  -1.3560
H       1.1657  -0.0920  -2.4048
H       -1.9540  0.8723  1.1155
H       -1.0262  0.0224  2.1734
H       -2.1613  -2.1906  1.5306
H       -3.4251  -0.9600  1.6648
H       0.5524  -2.2018  1.4103
H       1.4281  -0.7419  1.6501
H       3.4362  -0.7344  -1.7636
H       3.4170  -0.1290  -0.0698
H       -0.5280  -2.0149  -0.8430
H       -1.0952  -0.7950  -1.8482
