27

Co      0.0010  0.0154  -0.0188
Cl      -1.0874  1.6122  -1.2065
Cl      1.2202  1.5302  1.4432
C       2.7049  -0.7160  -0.7642
C       2.1335  -1.9692  -0.1577
C       -2.6289  -1.3585  -0.4496
C       -2.4810  -1.2022  1.0419
N       1.4852  -0.0393  -1.3100
N       1.0801  -1.4102  0.7549
N       -1.2025  -1.3032  -0.9285
N       -1.4574  -0.1356  1.2327
H       2.8573  -2.5575  0.4071
H       1.6803  -2.6125  -0.9012
H       -3.1753  -0.5383  -0.8888
H       -3.0917  -2.2900  -0.7444
H       1.6890  0.9352  -1.5361
H       1.2054  -0.4715  -2.1781
H       -1.8978  0.7657  1.1310
H       -1.1043  -0.1464  2.1726
H       -2.1238  -2.1230  1.4868
H       -3.4038  -0.9372  1.5372
H       0.5458  -2.1520  1.1737
H       1.5476  -0.9366  1.5074
H       3.4610  -0.8859  -1.5274
H       3.1290  -0.0688  0.0044
H       -0.8083  -2.2283  -0.8464
H       -1.2150  -1.0797  -1.9094
