27

Co      -0.0282  -0.0371  0.0154
Cl      -1.1202  1.6853  -1.2640
Cl      1.1973  1.5164  1.4076
C       2.6696  -0.7131  -0.8309
C       2.1467  -1.9401  -0.0918
C       -2.5738  -1.3802  -0.4525
C       -2.4435  -1.1331  1.0387
N       1.5247  0.0786  -1.3658
N       1.0803  -1.5855  0.9130
N       -1.1758  -1.2985  -0.9973
N       -1.3796  -0.1073  1.2723
H       2.9651  -2.4667  0.3823
H       1.6947  -2.6245  -0.7963
H       -3.1787  -0.6231  -0.9464
H       -3.0064  -2.3604  -0.6623
H       1.7421  1.0613  -1.3763
H       1.2856  -0.1709  -2.3037
H       -1.7750  0.8228  1.2663
H       -0.9779  -0.2141  2.1897
H       -2.1461  -2.0496  1.5368
H       -3.3790  -0.8116  1.4843
H       0.6003  -2.4196  1.1951
H       1.4967  -1.1858  1.7387
H       3.3310  -1.0386  -1.6217
H       3.2298  -0.0751  -0.1714
H       -0.7756  -2.2171  -1.0274
H       -1.2118  -0.9594  -1.9376
