27

Co      -0.0171  -0.1028  -0.0481
Cl      -1.1060  1.6282  -1.2110
Cl      1.2499  1.6099  1.4696
C       2.7995  -0.7114  -0.9010
C       2.2390  -2.0770  -0.0215
C       -2.6841  -1.3652  -0.4632
C       -2.5113  -1.2529  1.1048
N       1.4711  0.1812  -1.3639
N       0.9744  -1.5255  0.8544
N       -1.1934  -1.1696  -0.8643
N       -1.4461  -0.0725  1.1588
H       2.9083  -2.6627  0.6288
H       1.7988  -2.7503  -0.7560
H       -3.1950  -0.4704  -0.8077
H       -3.1106  -2.2626  -0.9639
H       1.6346  1.1990  -1.1837
H       1.2889  0.0910  -2.3679
H       -1.9059  0.8047  0.9332
H       -1.0768  0.0719  2.1007
H       -2.1128  -2.1265  1.6000
H       -3.4011  -0.9303  1.6556
H       0.3889  -2.2636  1.2101
H       1.3521  -1.0390  1.6593
H       3.3179  -0.9757  -1.8278
H       3.4330  -0.0331  -0.3254
H       -0.7234  -2.0697  -0.8320
H       -1.1560  -0.8704  -1.8287
