27

Co      0.0171  0.0925  0.0533
Cl      -1.0503  1.5649  -1.2149
Cl      1.0491  1.2585  1.2309
C       2.5133  -0.7081  -0.8161
C       2.0425  -1.7860  -0.1111
C       -2.3452  -1.2893  -0.4410
C       -2.3410  -1.0163  1.0348
N       1.4881  0.0225  -1.2091
N       1.0795  -1.4499  0.8219
N       -1.0643  -1.3973  -1.2062
N       -1.4411  -0.0182  1.5253
H       3.1019  -2.1388  0.1531
H       1.5419  -2.5636  -0.6724
H       -2.8269  -0.5528  -1.1050
H       -3.0531  -2.2179  -0.2562
H       1.9021  0.9276  -1.5706
H       1.3869  -0.4552  -2.1291
H       -1.9598  0.8638  1.6723
H       -1.2064  -0.2951  2.4941
H       -1.9771  -1.8872  1.5732
H       -3.4437  -0.9613  1.2372
H       0.6937  -2.3454  1.1168
H       1.7169  -1.3049  1.6557
H       3.3397  -1.2364  -1.4013
H       2.9830  -0.0241  -0.1332
H       -0.9695  -2.4226  -1.3904
H       -1.3313  -1.0787  -2.1454
