27

Co      -0.0781  -0.0838  -0.0511
Cl      -1.1126  1.6460  -1.2195
Cl      1.2732  1.5944  1.4925
C       2.7604  -0.7443  -0.7994
C       2.1817  -1.9727  -0.1465
C       -2.5890  -1.3271  -0.4295
C       -2.4672  -1.1864  1.0782
N       1.5645  0.0090  -1.3118
N       1.1627  -1.4425  0.8267
N       -1.2147  -1.2907  -1.0469
N       -1.5442  -0.0486  1.3077
H       2.9289  -2.5767  0.3723
H       1.6817  -2.6030  -0.8677
H       -3.1387  -0.4879  -0.8342
H       -3.0954  -2.2374  -0.7175
H       1.7625  1.0050  -1.3028
H       1.3789  -0.2318  -2.2667
H       -1.9977  0.8388  1.1607
H       -1.1773  -0.0219  2.2498
H       -2.0469  -2.0705  1.5330
H       -3.4310  -1.0142  1.5206
H       0.7493  -2.2149  1.3625
H       1.6474  -0.8287  1.5019
H       3.4592  -0.9710  -1.5881
H       3.2589  -0.1173  -0.0731
H       -0.8407  -2.2311  -1.1194
H       -1.2956  -0.9281  -1.9797
