27

Co      0.0000  -0.0131  -0.0001
Cl      -1.0418  1.5609  -1.1857
Cl      1.1119  1.3915  1.3194
C       2.4644  -0.6962  -0.8441
C       2.0227  -1.7616  -0.0801
C       -2.3843  -1.2441  -0.4282
C       -2.3290  -1.0609  1.0332
N       1.4666  0.0733  -1.2508
N       0.9753  -1.5047  0.8069
N       -1.0407  -1.2987  -1.0314
N       -1.3963  -0.0554  1.3376
H       3.1119  -2.0158  0.2443
H       1.6145  -2.6266  -0.6179
H       -2.8495  -0.4849  -1.0622
H       -3.0293  -2.1768  -0.3640
H       1.8617  1.0034  -1.4036
H       1.4561  -0.2380  -2.2454
H       -1.9204  0.8087  1.3272
H       -1.1848  -0.1508  2.3179
H       -1.9136  -1.9334  1.5221
H       -3.3721  -0.9842  1.3526
H       0.6260  -2.4352  1.0726
H       1.5505  -1.3447  1.6705
H       3.2638  -1.2759  -1.4302
H       2.9627  0.0006  -0.1988
H       -0.9112  -2.3141  -1.0803
H       -1.2261  -1.1025  -2.0189
