27

Co      -0.0019  0.0461  0.0193
Cl      -1.0735  1.6037  -1.2113
Cl      1.0776  1.3192  1.2735
C       2.6433  -0.6833  -0.8024
C       2.0960  -1.9186  -0.1106
C       -2.4154  -1.2282  -0.4516
C       -2.3665  -1.1569  1.0629
N       1.4806  0.0574  -1.3511
N       1.0281  -1.4963  0.8429
N       -1.0035  -1.3146  -0.9450
N       -1.4782  -0.0181  1.4038
H       2.8714  -2.4577  0.3975
H       1.6539  -2.5890  -0.8352
H       -2.8356  -0.3224  -0.8576
H       -2.9991  -2.0677  -0.7944
H       1.6947  1.0238  -1.5178
H       1.1878  -0.3218  -2.2404
H       -1.9593  0.8597  1.3183
H       -1.1292  -0.0530  2.3377
H       -1.9350  -2.0624  1.4792
H       -3.3548  -1.0451  1.4888
H       0.4772  -2.2887  1.1175
H       1.4481  -1.1384  1.6813
H       3.3405  -0.9553  -1.5796
H       3.1435  -0.0427  -0.1011
H       -0.6412  -2.2435  -0.7974
H       -0.9905  -1.1270  -1.9363
