27

Co      -0.0758  0.0065  -0.0286
Cl      -1.0843  1.5906  -1.1940
Cl      1.1914  1.4796  1.3783
C       2.8063  -0.7551  -0.9041
C       2.2819  -2.0524  -0.1236
C       -2.5608  -1.2537  -0.4266
C       -2.3993  -1.1817  1.0643
N       1.5587  0.0968  -1.2696
N       1.0741  -1.5348  0.8929
N       -1.1691  -1.3511  -1.0294
N       -1.5448  0.0009  1.3462
H       2.9016  -2.4701  0.7530
H       2.0042  -2.8874  -0.7931
H       -3.1553  -0.3958  -0.7220
H       -2.9768  -2.1611  -0.8943
H       1.6578  1.1238  -1.0324
H       0.9807  0.0695  -2.1757
H       -1.9302  0.9086  1.1274
H       -1.0688  0.0695  2.2392
H       -1.9398  -2.1227  1.3671
H       -3.2961  -1.0227  1.6577
H       0.4670  -2.2762  1.1944
H       1.2900  -0.8825  1.6903
H       3.2865  -0.7070  -1.9710
H       3.4655  -0.2708  -0.1697
H       -0.6276  -2.2192  -0.9444
H       -1.1091  -0.9829  -1.9644
