27

Co      -0.0010  0.0120  0.0135
Cl      -1.1090  1.6807  -1.2635
Cl      1.1215  1.3962  1.3280
C       2.5570  -0.7173  -0.7786
C       2.0873  -1.8688  -0.0530
C       -2.4012  -1.3072  -0.4568
C       -2.4099  -1.1311  1.0783
N       1.4835  0.0711  -1.3443
N       1.0961  -1.5967  0.8196
N       -1.0380  -1.3519  -1.0350
N       -1.4670  -0.0317  1.4625
H       3.0987  -2.3817  0.1404
H       1.5598  -2.4993  -0.7492
H       -2.7452  -0.4183  -1.0011
H       -3.1454  -2.1314  -0.5601
H       1.8771  0.9934  -1.6107
H       1.5306  -0.3632  -2.3178
H       -2.0169  0.8281  1.5704
H       -1.1818  -0.2277  2.4233
H       -2.0366  -1.9723  1.6694
H       -3.4936  -1.0174  1.3011
H       0.6869  -2.4880  1.0906
H       1.6712  -1.4328  1.6831
H       3.3079  -1.3630  -1.3772
H       3.0831  0.0450  -0.2144
H       -0.8516  -2.3513  -1.0247
H       -1.1886  -1.1937  -2.0335
