27

Co      -0.0695  0.0166  -0.0422
Cl      -1.0832  1.5856  -1.1902
Cl      1.2439  1.5390  1.4504
C       2.8401  -0.7343  -0.8106
C       2.2387  -2.0762  -0.2019
C       -2.6622  -1.3361  -0.4318
C       -2.4758  -1.2026  1.0458
N       1.5403  -0.0276  -1.2816
N       1.1369  -1.4032  0.8494
N       -1.2412  -1.2842  -0.9739
N       -1.5069  -0.0998  1.2456
H       2.7805  -2.6673  0.6322
H       1.8522  -2.7715  -0.9421
H       -3.3592  -0.5500  -0.7590
H       -2.9507  -2.3213  -0.8835
H       1.5956  0.9989  -1.2464
H       0.9725  -0.2564  -2.1249
H       -1.8571  0.8370  1.0530
H       -1.0194  -0.0483  2.1365
H       -2.1016  -2.1700  1.3757
H       -3.3335  -0.9164  1.6667
H       0.5588  -2.0767  1.3542
H       1.4635  -0.6279  1.5193
H       3.4871  -0.5441  -1.7927
H       3.3075  -0.2312  0.0634
H       -0.6549  -2.1384  -0.9042
H       -1.1805  -0.9065  -1.9029
