27

Co      0.0134  0.0845  0.0613
Cl      -1.0466  1.5612  -1.2113
Cl      1.0454  1.2548  1.2236
C       2.6259  -0.6720  -0.8255
C       2.0996  -1.9303  -0.0798
C       -2.4054  -1.3295  -0.4936
C       -2.3524  -1.0551  1.0532
N       1.3831  0.0600  -1.1905
N       1.0156  -1.3774  0.7935
N       -1.0490  -1.3364  -1.1369
N       -1.3608  -0.0017  1.4550
H       2.9864  -2.4594  0.2717
H       1.5241  -2.5908  -0.7234
H       -2.8374  -0.5239  -1.0917
H       -3.0968  -2.2208  -0.4637
H       1.7109  0.9861  -1.5722
H       1.2770  -0.4499  -2.1024
H       -1.8923  0.8789  1.5932
H       -1.0948  -0.2286  2.4161
H       -1.9929  -1.9106  1.6307
H       -3.4046  -0.9050  1.3267
H       0.5284  -2.1651  1.1890
H       1.6822  -1.1747  1.5842
H       3.3898  -1.0647  -1.5105
H       3.0748  0.0598  -0.1620
H       -0.8818  -2.3348  -1.2561
H       -1.2340  -1.0423  -2.0872
