27

Co      -0.0037  -0.0120  0.0075
Cl      -1.0982  1.5993  -1.2074
Cl      1.1625  1.4356  1.3487
C       2.7932  -0.7111  -0.9021
C       2.2218  -2.0335  -0.1160
C       -2.6211  -1.3076  -0.4478
C       -2.4350  -1.1768  1.0632
N       1.4931  0.0836  -1.2189
N       1.0396  -1.3988  0.8712
N       -1.1880  -1.2397  -0.9739
N       -1.4636  -0.0566  1.2267
H       2.9302  -2.5300  0.5490
H       1.7591  -2.7885  -0.7497
H       -3.1912  -0.4989  -0.8784
H       -3.0631  -2.2557  -0.7306
H       1.6661  1.0841  -1.1954
H       1.1680  -0.1070  -2.1530
H       -1.9282  0.8222  0.9987
H       -1.1626  0.0512  2.1893
H       -1.9809  -2.0825  1.4539
H       -3.3428  -0.9872  1.6262
H       0.5097  -2.1350  1.3226
H       1.5281  -0.8975  1.6025
H       3.4412  -0.7963  -1.7927
H       3.3059  -0.1125  -0.1550
H       -0.8156  -2.1713  -1.0146
H       -1.2142  -0.8820  -1.9122
