27

Co      -0.0082  -0.1035  -0.0554
Cl      -1.0836  1.6064  -1.1952
Cl      1.2132  1.5445  1.4459
C       2.6117  -0.6689  -0.8234
C       2.0657  -1.8927  -0.0831
C       -2.5445  -1.2939  -0.4279
C       -2.4313  -1.1698  1.0736
N       1.5048  0.1302  -1.4301
N       1.0326  -1.5469  0.9510
N       -1.1351  -1.2218  -0.9562
N       -1.4601  -0.0635  1.2407
H       2.8916  -2.4372  0.3577
H       1.5847  -2.5589  -0.7886
H       -3.0931  -0.4619  -0.8400
H       -3.0049  -2.2167  -0.7569
H       1.7025  1.1266  -1.3430
H       1.3375  -0.0599  -2.4078
H       -1.8960  0.8289  1.0479
H       -1.1096  0.0103  2.1800
H       -2.0349  -2.0651  1.5264
H       -3.3774  -0.9495  1.5438
H       0.5795  -2.3717  1.2956
H       1.4528  -1.0781  1.7358
H       3.3146  -1.0096  -1.5728
H       3.1304  -0.0201  -0.1448
H       -0.7559  -2.1515  -0.9849
H       -1.1733  -0.8903  -1.9033
