27

Co      0.0987  0.0256  0.0130
Cl      -1.0401  1.5344  -1.1781
Cl      1.0779  1.3432  1.2856
C       2.5012  -0.6948  -0.8058
C       2.0228  -1.8024  -0.0238
C       -2.4222  -1.2831  -0.4490
C       -2.4072  -1.1357  1.0834
N       1.4068  0.0999  -1.2696
N       0.9507  -1.4106  0.6893
N       -1.0568  -1.3146  -1.0347
N       -1.4785  -0.0192  1.4125
H       2.9790  -2.2250  0.3309
H       1.5762  -2.5304  -0.6797
H       -2.7682  -0.3884  -0.9600
H       -3.1622  -2.1025  -0.5684
H       1.8063  1.0152  -1.5860
H       1.3645  -0.3540  -2.2126
H       -2.0363  0.8220  1.3628
H       -1.2950  -0.0868  2.4071
H       -2.0137  -1.9715  1.6660
H       -3.4817  -1.0260  1.3334
H       0.4013  -2.2373  0.8902
H       1.4794  -1.3104  1.6052
H       3.1712  -1.3518  -1.4645
H       3.0963  0.0578  -0.2849
H       -0.9143  -2.3243  -1.1100
H       -1.2351  -1.0882  -2.0158
