27

Co      0.0019  -0.0484  -0.0244
Cl      -1.1113  1.6218  -1.1957
Cl      1.2313  1.5322  1.4430
C       2.6822  -0.7187  -0.7644
C       2.1323  -1.9332  -0.1544
C       -2.6444  -1.2851  -0.4304
C       -2.3910  -1.1945  1.0309
N       1.5370  0.0456  -1.3269
N       1.1924  -1.4691  0.9137
N       -1.2853  -1.4056  -1.0756
N       -1.5361  -0.0142  1.2413
H       2.7766  -2.5512  0.4875
H       1.7135  -2.5743  -0.9303
H       -3.2426  -0.4094  -0.6878
H       -3.1027  -2.1732  -0.8716
H       1.6433  1.0606  -1.2556
H       0.9994  -0.1608  -2.1825
H       -1.9118  0.8963  0.9447
H       -1.1057  0.1110  2.1518
H       -1.9208  -2.1298  1.3365
H       -3.2710  -1.0229  1.6596
H       0.6256  -2.1977  1.2952
H       1.4706  -0.7666  1.6457
H       3.2409  -0.7840  -1.7241
H       3.2993  -0.2120  -0.0234
H       -0.8067  -2.2991  -1.0557
H       -1.2437  -0.9896  -1.9940
