27

Co      -0.0853  -0.0290  -0.0326
Cl      -1.1237  1.6633  -1.2347
Cl      1.2340  1.5433  1.4365
C       2.8064  -0.8024  -0.8150
C       2.2523  -1.9828  -0.1536
C       -2.5563  -1.2653  -0.3989
C       -2.4754  -1.2323  1.0799
N       1.6454  -0.0031  -1.3355
N       1.1609  -1.5142  0.7710
N       -1.1647  -1.3237  -0.9554
N       -1.6348  -0.0468  1.3749
H       2.8688  -2.4846  0.6558
H       1.9790  -2.7276  -0.9083
H       -3.1298  -0.3798  -0.6637
H       -2.9655  -2.1532  -0.9480
H       1.7739  1.0119  -1.1878
H       1.1505  -0.1294  -2.2310
H       -2.0154  0.8590  1.1468
H       -1.1678  0.0163  2.2770
H       -2.0614  -2.1708  1.4318
H       -3.4067  -1.0566  1.5893
H       0.5901  -2.2705  1.0898
H       1.3577  -0.8311  1.5616
H       3.3055  -0.9097  -1.8039
H       3.4829  -0.2972  -0.1200
H       -0.5997  -2.1883  -0.8427
H       -1.1005  -0.9929  -1.9015
