27

Co      0.0658  -0.0012  0.0444
Cl      -1.1229  1.6947  -1.2715
Cl      1.1031  1.3837  1.3088
C       2.5355  -0.7131  -0.7452
C       2.0555  -1.8331  -0.0788
C       -2.4615  -1.3024  -0.4372
C       -2.4163  -1.1524  1.0500
N       1.4776  0.0464  -1.3458
N       1.0772  -1.5404  0.7863
N       -1.0736  -1.3474  -0.9564
N       -1.4476  -0.0788  1.3650
H       2.8992  -2.3472  0.3543
H       1.6605  -2.5001  -0.8355
H       -2.9254  -0.4375  -0.8643
H       -3.0224  -2.1745  -0.7378
H       1.7483  0.9967  -1.5421
H       1.1956  -0.3521  -2.2271
H       -1.8716  0.8264  1.2961
H       -1.1166  -0.1581  2.3054
H       -2.1048  -2.0620  1.5561
H       -3.4104  -0.9108  1.4100
H       0.5043  -2.3658  0.9390
H       1.4347  -1.2555  1.6980
H       3.1463  -1.1834  -1.5173
H       3.1687  -0.0680  -0.1612
H       -0.7266  -2.2795  -0.8988
H       -1.0967  -1.0953  -1.9268
