27

Co      -0.0175  -0.0852  -0.0111
Cl      -1.1606  1.7250  -1.2658
Cl      1.2386  1.5703  1.4468
C       2.8752  -0.7302  -0.8730
C       2.2738  -2.1095  -0.0734
C       -2.6326  -1.3307  -0.4708
C       -2.4884  -1.2631  1.1184
N       1.5048  0.1050  -1.3323
N       1.0532  -1.4934  0.8266
N       -1.1835  -1.3445  -0.9770
N       -1.5505  -0.0075  1.3161
H       2.8957  -2.7927  0.5502
H       1.7703  -2.6949  -0.8503
H       -3.0071  -0.3314  -0.7748
H       -3.2513  -2.1158  -0.9647
H       1.6504  1.1155  -1.2962
H       1.2780  -0.1070  -2.2874
H       -2.0474  0.8481  1.0836
H       -1.2129  0.1143  2.2779
H       -2.0198  -2.1207  1.5853
H       -3.4302  -1.0859  1.6107
H       0.4517  -2.2075  1.2183
H       1.4726  -1.0079  1.6065
H       3.4323  -0.9285  -1.7870
H       3.4557  -0.0536  -0.2493
H       -0.7993  -2.2815  -0.9506
H       -1.1613  -1.0428  -1.9364
