27

Co      -0.1119  -0.0872  -0.0040
Cl      -1.1258  1.7075  -1.2601
Cl      1.2301  1.5476  1.4452
C       2.7718  -0.7182  -0.7395
C       2.1773  -2.0191  -0.0951
C       -2.5705  -1.3606  -0.4887
C       -2.4395  -1.2049  1.0643
N       1.4896  0.0307  -1.3824
N       1.1372  -1.4903  0.7830
N       -1.1100  -1.2033  -0.8741
N       -1.3817  -0.0625  1.2321
H       2.8299  -2.8170  0.3728
H       1.6356  -2.4867  -0.9642
H       -3.0610  -0.4643  -0.8532
H       -3.0348  -2.2427  -0.9508
H       1.6449  1.0295  -1.4352
H       1.3654  -0.2968  -2.3306
H       -1.8255  0.8452  1.2122
H       -0.9241  -0.1014  2.1357
H       -2.0876  -2.0880  1.5938
H       -3.3594  -0.8805  1.5421
H       0.6704  -2.2346  1.2962
H       1.5939  -0.9033  1.4923
H       3.3842  -1.0367  -1.5650
H       3.3252  -0.0215  -0.1283
H       -0.6121  -2.0924  -0.7272
H       -1.0406  -0.9919  -1.8579
