27

Co      -0.0126  0.1000  0.0481
Cl      -1.0367  1.5412  -1.1714
Cl      1.1017  1.3470  1.2990
C       2.6596  -0.6718  -0.8347
C       2.0891  -1.9172  -0.0973
C       -2.4893  -1.2937  -0.5143
C       -2.3193  -1.1248  1.0192
N       1.4425  0.0439  -1.3093
N       0.9768  -1.4438  0.7950
N       -1.0981  -1.4135  -1.0390
N       -1.3769  -0.0081  1.3453
H       2.9740  -2.4741  0.2406
H       1.5280  -2.5563  -0.7737
H       -2.8219  -0.4041  -1.0714
H       -3.2575  -2.1178  -0.5554
H       1.7676  0.9736  -1.7116
H       1.3773  -0.5026  -2.2165
H       -1.9705  0.8346  1.4302
H       -1.1127  -0.1508  2.3086
H       -1.8139  -1.9799  1.4770
H       -3.3175  -1.0822  1.4525
H       0.4945  -2.2677  1.1138
H       1.6118  -1.3038  1.6325
H       3.4854  -1.1071  -1.4541
H       3.0583  0.0929  -0.1558
H       -0.9370  -2.4213  -0.9183
H       -1.1697  -1.3351  -2.0654
