27

Co      0.0303  0.0504  0.0015
Cl      -1.0864  1.6352  -1.2242
Cl      1.0906  1.3355  1.2829
C       2.5681  -0.6759  -0.7973
C       2.1337  -1.9917  -0.0788
C       -2.4280  -1.2627  -0.4825
C       -2.3358  -1.1253  1.0647
N       1.3230  0.0721  -1.1563
N       1.0531  -1.4973  0.8259
N       -1.0380  -1.3980  -1.0503
N       -1.4102  0.0011  1.3868
H       3.0875  -2.4604  0.2404
H       1.5966  -2.6830  -0.7162
H       -2.7229  -0.3364  -1.0105
H       -3.2239  -2.0554  -0.5777
H       1.6644  1.0064  -1.4679
H       1.2499  -0.3687  -2.0966
H       -1.9936  0.8423  1.3993
H       -1.1643  -0.0865  2.3634
H       -1.8671  -1.9727  1.5610
H       -3.3707  -1.0706  1.4161
H       0.5956  -2.2961  1.2467
H       1.7119  -1.2623  1.6059
H       3.3530  -0.9911  -1.4863
H       2.9771  0.0576  -0.1015
H       -0.8939  -2.4110  -0.9645
H       -1.1659  -1.3024  -2.0723
