27

Co      0.0686  0.0300  0.0479
Cl      -1.0705  1.5906  -1.2179
Cl      1.0475  1.3001  1.2412
C       2.6030  -0.6737  -0.8553
C       2.0689  -1.8687  -0.0607
C       -2.4279  -1.2627  -0.4435
C       -2.3922  -1.1334  1.0680
N       1.4703  0.1235  -1.3570
N       0.9385  -1.4919  0.8466
N       -1.0226  -1.2970  -0.9692
N       -1.4489  -0.0357  1.3979
H       2.8589  -2.3263  0.4958
H       1.6773  -2.6132  -0.7471
H       -2.9002  -0.4068  -0.8767
H       -2.9669  -2.1448  -0.7438
H       1.6969  1.0869  -1.4745
H       1.1349  -0.2008  -2.2514
H       -1.8910  0.8567  1.2793
H       -1.1433  -0.0662  2.3450
H       -2.0326  -2.0419  1.5350
H       -3.3819  -0.9409  1.4602
H       0.3054  -2.2968  0.9612
H       1.2947  -1.2522  1.7811
H       3.2150  -1.0426  -1.6699
H       3.2073  -0.0375  -0.2354
H       -0.6802  -2.2274  -0.9625
H       -1.0448  -0.9846  -1.9209
