27

Co      0.0000  0.0427  0.0422
Cl      0.0002  -2.3531  -0.2267
Cl      -0.0001  2.2899  0.2159
N       -1.4542  0.1319  -1.3110
N       -1.3887  -0.1463  1.2775
N       1.4542  0.1319  -1.3110
N       1.3887  -0.1458  1.2776
C       -2.7601  0.4178  -0.6551
C       -2.7112  -0.3966  0.6149
C       2.7601  0.4178  -0.6552
C       2.7112  -0.3962  0.6151
H       -1.2742  0.8176  -2.0203
H       -2.8302  1.4745  -0.4629
H       -3.5845  0.1187  -1.2819
H       -3.5109  -0.1612  1.2991
H       -2.7531  -1.4493  0.3833
H       -1.4513  0.6824  1.8394
H       -1.2008  -0.9223  1.8878
H       1.4900  -0.7736  -1.7512
H       1.2744  0.8173  -2.0205
H       3.5845  0.1184  -1.2820
H       2.8303  1.4746  -0.4635
H       2.7534  -1.4489  0.3839
H       3.5108  -0.1603  1.2993
H       1.2007  -0.9215  1.8881
H       1.4510  0.6831  1.8391
H       -1.4900  -0.7753  -1.7515
