27

Co      0.0000  -0.0061  0.0389
Cl      0.0002  -2.3266  -0.2233
Cl      -0.0001  2.3307  0.2193
N       -1.5043  0.1504  -1.3587
N       -1.4389  -0.1546  1.3218
N       1.5043  0.1503  -1.3586
N       1.4388  -0.1541  1.3218
C       -2.7324  0.4154  -0.7039
C       -2.6836  -0.3942  0.6671
C       2.7325  0.4154  -0.7041
C       2.6835  -0.3938  0.6673
H       -1.2873  0.8761  -2.0084
H       -2.7448  1.4779  -0.5084
H       -3.5832  0.1869  -1.3225
H       -3.5095  -0.2227  1.3431
H       -2.6677  -1.4526  0.4389
H       -1.4555  0.6943  1.8502
H       -1.2509  -0.9135  1.9466
H       1.5212  -0.7215  -1.8495
H       1.2875  0.8758  -2.0087
H       3.5832  0.1866  -1.3255
H       2.7420  1.4779  -0.5090
H       2.6652  -1.4522  0.4395
H       3.5095  -0.2218  1.3461
H       1.2508  -0.9127  1.9470
H       1.4553  0.6950  1.8499
H       -1.5212  -0.7233  -1.8499
