27

Co      0.0741  0.0488  0.0034
Cl      -0.0063  -2.3122  -0.2118
Cl      -0.0067  2.2449  0.2051
N       -1.3583  0.2049  -1.2887
N       -1.4368  -0.2151  1.3656
N       1.3697  0.1907  -1.3177
N       1.2911  -0.2005  1.2474
C       -2.8278  0.3652  -0.6791
C       -2.8771  -0.3792  0.6953
C       2.8214  0.3779  -0.6995
C       2.7725  -0.3621  0.6766
H       -1.5673  0.8591  -2.1444
H       -2.7933  1.4296  -0.4973
H       -3.6020  0.1747  -1.4264
H       -3.6858  -0.1705  1.3885
H       -2.8431  -1.4464  0.5216
H       -1.6000  0.6550  1.8584
H       -1.6289  -0.9074  2.1764
H       1.4930  -0.7228  -1.7308
H       1.5445  0.8330  -2.1802
H       3.6121  0.1674  -1.4099
H       2.7871  1.4489  -0.5313
H       2.7388  -1.4331  0.4868
H       3.5237  -0.1824  1.4460
H       1.4051  -0.9200  2.0061
H       1.4212  0.6442  1.7745
H       -1.4797  -0.7046  -1.7264
