27

Co      0.0250  0.0000  0.0000
Cl      0.0002  -2.2451  -0.2142
Cl      -0.0001  2.2451  0.2143
N       -1.4518  0.1536  -1.3949
N       -1.4517  -0.1537  1.3948
N       1.4108  0.1399  -1.2946
N       1.4107  -0.1396  1.2947
C       -2.7367  0.4001  -0.6624
C       -2.7370  -0.3994  0.6624
C       2.7368  0.4046  -0.6534
C       2.7370  -0.4035  0.6535
H       -1.3694  0.8851  -2.0872
H       -2.7011  1.4683  -0.4901
H       -3.6889  0.1558  -1.1442
H       -3.6844  -0.1548  1.1489
H       -2.7018  -1.4676  0.4902
H       -1.6781  0.6683  1.9564
H       -1.3698  -0.8857  2.0867
H       1.6237  -0.6916  -1.8351
H       1.2877  0.8530  -2.0009
H       3.6434  0.1600  -1.1899
H       2.7149  1.4729  -0.4771
H       2.7157  -1.4718  0.4772
H       3.6433  -0.1584  1.1901
H       1.2878  -0.8530  2.0006
H       1.6232  0.6917  1.8355
H       -1.6829  -0.6686  -1.9561
