27

Co      0.0000  -0.0488  -0.0034
Cl      0.0002  -2.3111  -0.2217
Cl      -0.0001  2.3785  0.2286
N       -1.6360  0.0954  -1.4144
N       -1.5575  -0.0854  1.3373
N       1.5575  0.0990  -1.3407
N       1.6360  -0.0886  1.4110
C       -2.7669  0.4396  -0.5904
C       -2.7180  -0.4241  0.5741
C       2.7178  0.4248  -0.5709
C       2.7671  -0.4384  0.5940
H       -1.2588  0.9469  -1.8787
H       -2.9278  1.4798  -0.3464
H       -3.5684  0.1184  -1.2388
H       -3.4845  -0.1204  1.2771
H       -2.8794  -1.4615  0.3221
H       -1.5901  0.7303  1.9233
H       -1.1981  -0.8997  1.8459
H       1.6090  -0.6669  -2.0139
H       1.1608  0.9700  -1.7766
H       3.4800  0.1197  -1.2782
H       2.8826  1.4585  -0.3164
H       2.9325  -1.4721  0.3609
H       3.5683  -0.1015  1.2425
H       1.3006  -0.8831  1.9500
H       1.6797  0.7457  1.9709
H       -1.7109  -0.6814  -2.0547
