27

Co      0.0000  -0.0488  -0.0034
Cl      0.0002  -2.2630  -0.2125
Cl      -0.0001  2.3303  0.2194
N       -1.5497  0.1512  -1.4022
N       -1.5497  -0.1412  1.3987
N       1.5497  0.1511  -1.4021
N       1.5496  -0.1407  1.3987
C       -2.7075  0.4165  -0.6038
C       -2.7077  -0.4158  0.6071
C       2.7076  0.4165  -0.6039
C       2.7077  -0.4154  0.6073
H       -1.2239  0.9547  -1.9287
H       -2.9689  1.4605  -0.4011
H       -3.4622  -0.0003  -1.2714
H       -3.4667  0.0081  1.2704
H       -2.9696  -1.4569  0.4112
H       -1.5533  0.7414  1.8781
H       -1.2614  -0.8879  1.9989
H       1.5759  -0.6780  -1.9649
H       1.2241  0.9544  -1.9289
H       3.4621  -0.0007  -1.2715
H       2.9690  1.4577  -0.4017
H       2.9699  -1.4566  0.4118
H       3.4621  0.0090  1.2750
H       1.2613  -0.8871  1.9993
H       1.5485  0.7421  1.8777
H       -1.5759  -0.6778  -1.9653
