27

Co      -0.0490  -0.0427  -0.0422
Cl      0.0068  -2.2739  -0.2144
Cl      0.0064  2.3372  0.2253
N       -1.6258  0.1384  -1.4273
N       -1.6127  -0.1244  1.3870
N       1.5734  0.1388  -1.2980
N       1.7173  -0.1244  1.4051
C       -2.7457  0.4398  -0.5910
C       -2.7459  -0.4448  0.6116
C       2.7523  0.4315  -0.5617
C       2.8506  -0.4656  0.6216
H       -1.1605  0.9093  -1.9611
H       -2.9288  1.4828  -0.3543
H       -3.6266  0.0625  -1.1146
H       -3.6163  -0.0277  1.1325
H       -2.9580  -1.4890  0.3995
H       -1.5435  0.8068  1.7903
H       -1.1365  -0.8253  1.9895
H       1.5264  -0.7365  -1.7958
H       1.1017  0.9029  -1.8348
H       3.5709  0.0780  -1.1769
H       2.9489  1.4680  -0.3079
H       3.0765  -1.5062  0.4219
H       3.7328  -0.0230  1.1207
H       1.2739  -0.7792  2.0696
H       1.6625  0.8419  1.7529
H       -1.5989  -0.7293  -1.9217
