27

Co      0.0000  -0.0488  -0.0034
Cl      0.0002  -2.2610  -0.2089
Cl      -0.0001  2.3284  0.2157
N       -1.5130  0.1264  -1.3334
N       -1.5130  -0.1164  1.3299
N       1.5130  0.1263  -1.3333
N       1.5129  -0.1159  1.3300
C       -2.8634  0.3995  -0.5976
C       -2.8637  -0.3988  0.6009
C       2.8635  0.3994  -0.5977
C       2.8637  -0.3983  0.6012
H       -1.1341  0.9909  -1.7954
H       -2.9160  1.4533  -0.3919
H       -3.7966  0.0798  -1.0758
H       -3.7965  -0.0720  1.0793
H       -2.9167  -1.4526  0.4020
H       -1.5207  0.7056  1.9098
H       -1.1715  -0.9242  1.8656
H       1.5479  -0.6423  -1.9967
H       1.1343  0.9906  -1.8000
H       3.7965  0.0750  -1.0731
H       2.9190  1.4533  -0.3925
H       2.9198  -1.4522  0.4026
H       3.7965  -0.0667  1.0766
H       1.1759  -0.9234  1.8704
H       1.5204  0.7064  1.9095
H       -1.5479  -0.6420  -1.9971
