27

Co      0.0000  0.0000  0.0000
Cl      0.0002  -2.2574  -0.2106
Cl      -0.0001  2.2575  0.2107
N       -1.5295  0.1247  -1.3896
N       -1.5295  -0.1249  1.3895
N       1.5295  0.1247  -1.3896
N       1.5295  -0.1244  1.3896
C       -2.8016  0.3939  -0.6401
C       -2.8019  -0.3932  0.6401
C       2.8017  0.3939  -0.6402
C       2.8019  -0.3928  0.6403
H       -1.3057  0.9850  -1.8921
H       -2.7991  1.4486  -0.4229
H       -3.6726  0.1792  -1.2405
H       -3.6726  -0.1781  1.2407
H       -2.7997  -1.4479  0.4230
H       -1.6058  0.6362  2.0604
H       -1.3062  -0.9855  1.8917
H       1.6061  -0.6368  -2.0597
H       1.3059  0.9847  -1.8968
H       3.6726  0.1744  -1.2406
H       2.7992  1.4486  -0.4236
H       2.8000  -1.4475  0.4236
H       3.6725  -0.1728  1.2408
H       1.3105  -0.9848  1.8964
H       1.6056  0.6369  2.0601
H       -1.6061  -0.6365  -2.0601
