27

Co      0.0250  -0.0061  0.0389
Cl      0.0002  -2.2750  -0.2216
Cl      -0.0001  2.2792  0.2176
N       -1.3837  0.1384  -1.3244
N       -1.3968  -0.1426  1.3611
N       1.4213  0.1246  -1.2978
N       1.2772  -0.1284  1.1874
C       -2.7059  0.4005  -0.6565
C       -2.7061  -0.3941  0.6393
C       2.7551  0.4197  -0.6672
C       2.6570  -0.3834  0.6108
H       -1.4234  0.8618  -2.0552
H       -2.7040  1.4659  -0.4818
H       -3.5309  0.1672  -1.3074
H       -3.5411  -0.1931  1.2932
H       -2.6760  -1.4554  0.4466
H       -1.7106  0.6568  1.9540
H       -1.4852  -0.8795  2.0965
H       1.7216  -0.7067  -1.8326
H       1.4399  0.8100  -2.0721
H       3.5738  0.1615  -1.3137
H       2.7668  1.4852  -0.5031
H       2.6409  -1.4449  0.3992
H       3.4117  -0.2066  1.3736
H       1.3050  -0.8665  1.9073
H       1.5575  0.6655  1.7888
H       -1.6827  -0.6710  -1.9095
