27

Co      0.0000  0.0488  0.0034
Cl      0.0002  -2.2716  -0.2176
Cl      -0.0001  2.2043  0.2109
N       -1.4564  0.1410  -1.2878
N       -1.4564  -0.1512  1.2911
N       1.4564  0.1409  -1.2877
N       1.4564  -0.1507  1.2911
C       -2.7141  0.4093  -0.6824
C       -2.7144  -0.4086  0.6790
C       2.7142  0.4092  -0.6826
C       2.7144  -0.4081  0.6793
H       -1.2668  0.8402  -1.9808
H       -2.7193  1.4697  -0.4706
H       -3.5313  0.2055  -1.3541
H       -3.5313  -0.2112  1.3509
H       -2.7200  -1.4690  0.4605
H       -1.4869  0.6925  1.8272
H       -1.2302  -0.9081  1.9096
H       1.4602  -0.7571  -1.7390
H       1.2670  0.8399  -1.9810
H       3.5313  0.2051  -1.3571
H       2.7166  1.4697  -0.4712
H       2.7174  -1.4686  0.4611
H       3.5312  -0.2103  1.3539
H       1.2302  -0.9073  1.9100
H       1.4866  0.6932  1.8269
H       -1.4602  -0.7568  -1.7394
