27

Co      0.0000  -0.0488  -0.0034
Cl      0.0002  -2.2166  -0.2072
Cl      -0.0001  2.2840  0.2140
N       -1.5357  0.1253  -1.3475
N       -1.5357  -0.1154  1.3440
N       1.5358  0.1253  -1.3474
N       1.5357  -0.1149  1.3440
C       -2.8019  0.4057  -0.6253
C       -2.8021  -0.4050  0.6286
C       2.8020  0.4057  -0.6254
C       2.8021  -0.4046  0.6288
H       -1.0588  1.0079  -1.7512
H       -2.8646  1.4517  -0.3737
H       -3.6577  0.1490  -1.2246
H       -3.6621  -0.1412  1.2236
H       -2.8652  -1.4510  0.3838
H       -1.3532  0.7429  1.8786
H       -1.0962  -0.9411  1.8214
H       1.3758  -0.6796  -1.9654
H       1.0590  1.0076  -1.7558
H       3.6576  0.1442  -1.2248
H       2.8647  1.4517  -0.3744
H       2.8655  -1.4506  0.3845
H       3.6576  -0.1359  1.2283
H       1.1006  -0.9404  1.8262
H       1.3484  0.7436  1.8783
H       -1.3758  -0.6793  -1.9658
