27

Co      -0.0490  0.0000  0.0000
Cl      0.0068  -2.2612  -0.2181
Cl      0.0064  2.2612  0.2182
N       -1.5997  0.0952  -1.4103
N       -1.5997  -0.0954  1.4102
N       1.6259  0.0956  -1.3547
N       1.6259  -0.0953  1.3547
C       -2.7160  0.4355  -0.5969
C       -2.7162  -0.4348  0.5969
C       2.7717  0.4420  -0.5872
C       2.7718  -0.4409  0.5873
H       -1.0713  0.9266  -1.8564
H       -2.8527  1.4805  -0.3585
H       -3.6113  0.0991  -1.1111
H       -3.6158  -0.0980  1.1067
H       -2.8534  -1.4770  0.3585
H       -1.5767  0.7216  1.9930
H       -1.0717  -0.9271  1.8559
H       1.5981  -0.7418  -1.9111
H       1.1107  0.9006  -1.8377
H       3.6440  0.1004  -1.1341
H       2.9220  1.4805  -0.3465
H       2.9228  -1.4794  0.3465
H       3.6439  -0.0988  1.1342
H       1.1153  -0.9007  1.8374
H       1.5975  0.7419  1.9114
H       -1.5724  -0.7219  -1.9927
