27

Co      -0.0250  0.0000  0.0000
Cl      0.0002  -2.3056  -0.2198
Cl      -0.0001  2.3056  0.2199
N       -1.6021  0.1180  -1.3294
N       -1.6021  -0.1181  1.3293
N       1.6431  0.1354  -1.4295
N       1.6430  -0.1351  1.4295
C       -2.7735  0.4433  -0.5822
C       -2.7737  -0.4426  0.5821
C       2.7736  0.4387  -0.5914
C       2.7737  -0.4376  0.5915
H       -1.2724  0.8461  -1.9467
H       -2.9971  1.4835  -0.3425
H       -3.5158  0.0770  -1.2909
H       -3.5203  -0.0759  1.2865
H       -2.9978  -1.4800  0.3425
H       -1.6312  0.7648  1.7958
H       -1.2728  -0.8466  1.9463
H       1.6823  -0.7427  -1.9195
H       1.3546  0.8814  -2.0297
H       3.5613  0.0684  -1.2455
H       2.9873  1.4724  -0.3605
H       2.9882  -1.4713  0.3606
H       3.5612  -0.0668  1.2456
H       1.3547  -0.8814  2.0294
H       1.6818  0.7428  1.9199
H       -1.6269  -0.7652  -1.7955
