27

Co      0.0000  0.0488  0.0034
Cl      0.0002  -2.3070  -0.2154
Cl      -0.0001  2.2397  0.2088
N       -1.2933  0.1605  -1.2749
N       -1.3718  -0.1708  1.3518
N       1.3719  0.1567  -1.3484
N       1.2933  -0.1665  1.2782
C       -2.7217  0.3965  -0.6890
C       -2.7710  -0.4105  0.7053
C       2.7709  0.4112  -0.7088
C       2.7219  -0.3954  0.6859
H       -1.1658  0.8808  -1.9643
H       -2.7192  1.4657  -0.5368
H       -3.5637  0.1332  -1.3059
H       -3.6475  -0.1290  1.2679
H       -2.7690  -1.4825  0.5610
H       -1.5813  0.6270  1.9535
H       -1.2274  -0.9291  1.9963
H       1.5629  -0.6916  -1.8615
H       1.2642  0.8571  -2.0714
H       3.6520  0.1268  -1.2667
H       2.7647  1.4870  -0.5680
H       2.7164  -1.4712  0.5236
H       3.5636  -0.1417  1.3028
H       1.1291  -0.9442  1.8973
H       1.4912  0.6130  1.9053
H       -1.4610  -0.6766  -1.8215
