27

Co      -0.0250  0.0061  -0.0389
Cl      0.0002  -2.2595  -0.2085
Cl      -0.0001  2.2555  0.2127
N       -1.5198  0.1466  -1.3668
N       -1.5067  -0.1427  1.3299
N       1.4822  0.1602  -1.3933
N       1.6262  -0.1558  1.5037
C       -2.7843  0.4368  -0.6357
C       -2.7845  -0.4418  0.6529
C       2.7352  0.4174  -0.6253
C       2.8336  -0.4515  0.6818
H       -1.2621  0.8897  -1.9939
H       -2.9352  1.4894  -0.4507
H       -3.5834  0.0817  -1.2756
H       -3.5686  -0.0536  1.2945
H       -2.9645  -1.4985  0.4859
H       -1.6631  0.6947  1.8658
H       -1.2012  -0.8730  1.9517
H       1.6570  -0.6459  -1.9857
H       1.2461  0.9409  -1.9775
H       3.5405  0.0866  -1.2695
H       2.8726  1.4702  -0.4306
H       3.0002  -1.5083  0.5346
H       3.7024  -0.0384  1.2099
H       1.3812  -0.8845  2.1416
H       1.8202  0.6873  2.0303
H       -1.6961  -0.6811  -1.9096
