27

Co      0.0000  0.0000  0.0000
Cl      0.0002  -2.2733  -0.2121
Cl      -0.0001  2.2734  0.2122
N       -1.3229  0.1607  -1.3134
N       -1.3229  -0.1609  1.3133
N       1.3229  0.1569  -1.3133
N       1.3228  -0.1566  1.3133
C       -2.7463  0.3990  -0.6874
C       -2.7465  -0.3983  0.6874
C       2.7463  0.3990  -0.6876
C       2.7465  -0.3979  0.6877
H       -1.3418  0.9144  -2.0048
H       -2.7583  1.4634  -0.5295
H       -3.5109  0.1559  -1.4155
H       -3.5064  -0.1548  1.4201
H       -2.7590  -1.4655  0.5295
H       -1.5915  0.6273  1.9313
H       -1.3423  -0.9149  2.0043
H       1.6000  -0.6280  -1.9269
H       1.3420  0.9103  -2.0088
H       3.5109  0.1593  -1.4156
H       2.7547  1.4699  -0.5264
H       2.7555  -1.4688  0.5264
H       3.5108  -0.1577  1.4158
H       1.3422  -0.9104  2.0084
H       1.5995  0.6281  1.9272
H       -1.5963  -0.6277  -1.9310
