27

Co      -0.0490  0.0000  0.0000
Cl      0.0068  -2.3018  -0.2123
Cl      0.0064  2.3019  0.2124
N       -1.5214  0.1278  -1.4169
N       -1.5214  -0.1279  1.4168
N       1.5476  0.1244  -1.3613
N       1.5475  -0.1241  1.3613
C       -2.8309  0.3938  -0.6090
C       -2.8311  -0.3931  0.6089
C       2.8865  0.4003  -0.5993
C       2.8867  -0.3992  0.5994
H       -1.1617  0.9911  -1.8812
H       -2.8666  1.4476  -0.4099
H       -3.8018  0.0763  -1.0397
H       -3.8017  -0.0752  1.0399
H       -2.8672  -1.4469  0.4099
H       -1.5458  0.6495  2.0679
H       -1.1621  -0.9917  1.8807
H       1.5754  -0.6697  -1.9822
H       1.2011  0.9614  -1.8662
H       3.8344  0.0813  -1.0599
H       2.9349  1.4542  -0.3942
H       2.9358  -1.4531  0.3942
H       3.8344  -0.0798  1.0600
H       1.2057  -0.9615  1.8659
H       1.5749  0.6698  1.9825
H       -1.5460  -0.6499  -2.0676
