27

Co      -0.0490  -0.0488  -0.0034
Cl      0.0068  -2.3073  -0.2142
Cl      0.0064  2.3747  0.2211
N       -1.4770  0.1554  -1.4328
N       -1.4770  -0.1454  1.4293
N       1.5032  0.1520  -1.3771
N       1.5031  -0.1417  1.3738
C       -2.7908  0.3978  -0.6020
C       -2.7910  -0.3971  0.6054
C       2.8465  0.4043  -0.5923
C       2.8466  -0.4032  0.5958
H       -1.3097  0.9628  -2.0082
H       -2.8826  1.4468  -0.3969
H       -3.6550  0.0695  -1.1698
H       -3.6550  -0.0616  1.1734
H       -2.8833  -1.4461  0.4070
H       -1.5526  0.7157  1.9430
H       -1.3472  -0.8960  2.0784
H       1.6092  -0.6720  -1.9448
H       1.3491  0.9330  -1.9888
H       3.6877  0.0789  -1.1900
H       2.9510  1.4533  -0.3812
H       2.9518  -1.4522  0.3913
H       3.6876  -0.0706  1.1935
H       1.3863  -0.8658  2.0592
H       1.5818  0.7360  1.8576
H       -1.5798  -0.6521  -2.0302
