27

Co      0.0741  -0.0061  0.0389
Cl      -0.0063  -2.3194  -0.2233
Cl      -0.0067  2.3236  0.2193
N       -1.4304  0.1467  -1.2846
N       -1.4435  -0.1509  1.3214
N       1.4418  0.1362  -1.3136
N       1.2978  -0.1400  1.2032
C       -2.7678  0.4069  -0.6613
C       -2.7681  -0.4005  0.6441
C       2.7614  0.4196  -0.6818
C       2.6634  -0.3833  0.6254
H       -1.3215  0.8442  -2.0075
H       -2.7682  1.4772  -0.4981
H       -3.6699  0.1342  -1.1981
H       -3.6801  -0.1601  1.1839
H       -2.7402  -1.4667  0.4630
H       -1.6714  0.6840  1.8593
H       -1.3833  -0.8619  2.0488
H       1.6530  -0.7143  -1.8229
H       1.2987  0.8218  -2.0440
H       3.6800  0.1187  -1.1816
H       2.7657  1.4900  -0.5358
H       2.6397  -1.4496  0.4319
H       3.5180  -0.1637  1.2415
H       1.1638  -0.8783  1.8792
H       1.4888  0.6731  1.7791
H       -1.6434  -0.6982  -1.8148
