27

Co      0.0000  0.0000  0.0000
Cl      0.0002  -2.2451  -0.2142
Cl      -0.0001  2.2451  0.2143
N       -1.4449  0.1732  -1.3672
N       -1.4449  -0.1734  1.3671
N       1.4449  0.1732  -1.3671
N       1.4449  -0.1729  1.3671
C       -2.7278  0.4157  -0.6442
C       -2.7280  -0.4150  0.6442
C       2.7279  0.4157  -0.6443
C       2.7280  -0.4146  0.6444
H       -1.3273  0.8209  -2.1360
H       -2.8155  1.4704  -0.4378
H       -3.5580  0.1138  -1.2619
H       -3.5580  -0.1127  1.2620
H       -2.8162  -1.4697  0.4378
H       -1.4862  0.7689  1.7440
H       -1.3277  -0.8215  2.1355
H       1.4865  -0.7695  -1.7433
H       1.3275  0.8206  -2.1318
H       3.5580  0.1178  -1.2620
H       2.8156  1.4705  -0.4384
H       2.8165  -1.4694  0.4385
H       3.5579  -0.1162  1.2622
H       1.3232  -0.8207  2.1315
H       1.4859  0.7696  1.7437
H       -1.4865  -0.7693  -1.7437
