27

Co      -0.0250  0.0000  0.0000
Cl      0.0002  -2.2966  -0.2159
Cl      -0.0001  2.2967  0.2160
N       -1.4924  0.1408  -1.3673
N       -1.4924  -0.1409  1.3672
N       1.5334  0.1544  -1.4674
N       1.5333  -0.1541  1.4674
C       -2.7571  0.4096  -0.6219
C       -2.7573  -0.4089  0.6219
C       2.7571  0.4050  -0.6311
C       2.7573  -0.4039  0.6312
H       -1.2316  0.9154  -1.9463
H       -2.8707  1.4507  -0.3688
H       -3.5097  0.1425  -1.3546
H       -3.5142  -0.1414  1.3502
H       -2.8714  -1.4500  0.3689
H       -1.3837  0.7422  1.8515
H       -1.2320  -0.9160  1.9458
H       1.4386  -0.7200  -1.9715
H       1.3137  0.9470  -2.0330
H       3.5552  0.1375  -1.3092
H       2.8572  1.4462  -0.3831
H       2.8580  -1.4451  0.3832
H       3.5551  -0.1360  1.3093
H       1.3138  -0.9471  2.0327
H       1.4381  0.7201  1.9719
H       -1.3794  -0.7425  -1.8512
