27

Co      -0.0741  0.0000  0.0000
Cl      0.0068  -2.2574  -0.2106
Cl      0.0064  2.2575  0.2107
N       -1.5770  0.1488  -1.4097
N       -1.4985  -0.1490  1.3359
N       1.5656  0.1591  -1.3805
N       1.6441  -0.1589  1.4542
C       -2.7528  0.3883  -0.6113
C       -2.7040  -0.3729  0.5916
C       2.7594  0.3755  -0.5911
C       2.8086  -0.3892  0.6108
H       -1.3494  0.9369  -1.9854
H       -2.9110  1.4323  -0.3875
H       -3.5555  0.0569  -1.2510
H       -3.4716  -0.0656  1.2859
H       -2.8625  -1.4140  0.3532
H       -1.3783  0.7112  1.8599
H       -1.2517  -0.9571  1.8819
H       1.4626  -0.7087  -1.8949
H       1.3726  0.9587  -1.9494
H       3.5453  0.0716  -1.2678
H       2.9137  1.4167  -0.3511
H       2.9636  -1.4304  0.3855
H       3.6336  -0.0602  1.2287
H       1.4709  -0.9391  2.0522
H       1.5603  0.7235  1.9394
H       -1.4722  -0.7263  -1.9038
