27

Co      0.0250  0.0427  0.0422
Cl      0.0002  -2.2729  -0.2121
Cl      -0.0001  2.2098  0.2014
N       -1.4164  0.1692  -1.4090
N       -1.4295  -0.1835  1.4491
N       1.4540  0.1517  -1.3824
N       1.3099  -0.1656  1.2753
C       -2.7726  0.4066  -0.6987
C       -2.7728  -0.4002  0.6781
C       2.8217  0.4258  -0.7093
C       2.7237  -0.3895  0.6496
H       -1.2317  0.9209  -2.0329
H       -2.8405  1.4643  -0.5261
H       -3.5864  0.1074  -1.3405
H       -3.6012  -0.1401  1.3185
H       -2.8126  -1.4565  0.4809
H       -1.4947  0.6177  2.0606
H       -1.2564  -1.0060  2.0035
H       1.4780  -0.7317  -1.8480
H       1.2481  0.8654  -2.0535
H       3.6293  0.1055  -1.3469
H       2.8996  1.4901  -0.5437
H       2.7737  -1.4498  0.4298
H       3.4672  -0.1573  1.4034
H       1.0762  -0.9892  1.8180
H       1.3408  0.6265  1.8917
H       -1.4352  -0.6960  -1.9286
