27

Co      0.0000  -0.0427  -0.0422
Cl      0.0002  -2.2258  -0.2052
Cl      -0.0001  2.2891  0.2161
N       -1.4923  0.1628  -1.3818
N       -1.5578  -0.1488  1.4151
N       1.4924  0.1628  -1.3817
N       1.5578  -0.1483  1.4151
C       -2.7727  0.3926  -0.6245
C       -2.8220  -0.4123  0.6646
C       2.7727  0.3925  -0.6246
C       2.8220  -0.4119  0.6648
H       -1.3219  0.9707  -1.9589
H       -2.8045  1.4452  -0.3964
H       -3.6181  0.1612  -1.2535
H       -3.6917  -0.1165  1.2365
H       -2.8828  -1.4690  0.4761
H       -1.6030  0.7356  1.8883
H       -1.3962  -0.8671  2.0905
H       1.5647  -0.6457  -1.9751
H       1.3221  0.9704  -1.9591
H       3.6181  0.1608  -1.2536
H       2.8046  1.4452  -0.3970
H       2.8831  -1.4687  0.4767
H       3.6916  -0.1157  1.2367
H       1.3961  -0.8663  2.0908
H       1.6027  0.7363  1.8880
H       -1.5647  -0.6434  -1.9755
