27

Co      0.0000  0.0000  0.0000
Cl      0.0002  -2.2894  -0.2159
Cl      -0.0001  2.2895  0.2160
N       -1.5326  0.1104  -1.3342
N       -1.5326  -0.1105  1.3341
N       1.5326  0.1103  -1.3341
N       1.5325  -0.1100  1.3342
C       -2.7167  0.4101  -0.5962
C       -2.7169  -0.4094  0.5962
C       2.7168  0.4100  -0.5964
C       2.7169  -0.4089  0.5964
H       -1.1606  0.9683  -1.7906
H       -2.9414  1.4540  -0.3880
H       -3.4583  0.0314  -1.2949
H       -3.4628  -0.0303  1.2906
H       -2.9420  -1.4505  0.3881
H       -1.5626  0.6706  1.9784
H       -1.1610  -0.9688  1.7901
H       1.5583  -0.6713  -1.9777
H       1.1608  0.9680  -1.7952
H       3.4583  0.0266  -1.2951
H       2.9415  1.4512  -0.3887
H       2.9423  -1.4501  0.3887
H       3.4583  -0.0250  1.2952
H       1.1654  -0.9680  1.7949
H       1.5578  0.6714  1.9781
H       -1.5583  -0.6710  -1.9781
