27

Co      0.0741  -0.0061  0.0389
Cl      -0.0063  -2.2393  -0.2088
Cl      -0.0067  2.2434  0.2048
N       -1.4295  0.1726  -1.3829
N       -1.4426  -0.1768  1.4196
N       1.4409  0.1584  -1.4119
N       1.2969  -0.1622  1.3014
C       -2.8004  0.4098  -0.6921
C       -2.8006  -0.4034  0.6749
C       2.7939  0.4226  -0.7125
C       2.6959  -0.3863  0.6562
H       -1.2328  0.9399  -1.9877
H       -2.8732  1.4675  -0.5129
H       -3.6028  0.1157  -1.3503
H       -3.6175  -0.1416  1.3316
H       -2.8453  -1.4598  0.4778
H       -1.4959  0.6595  1.9743
H       -1.2946  -0.9576  2.0290
H       1.4767  -0.6899  -1.9342
H       1.2100  0.9137  -2.0279
H       3.6129  0.1040  -1.3338
H       2.8670  1.4868  -0.5469
H       2.7410  -1.4465  0.4430
H       3.4509  -0.1491  1.3937
H       1.0751  -0.9702  1.8632
H       1.3126  0.6487  1.8904
H       -1.4634  -0.6738  -1.9298
