27

Co      0.0250  -0.0061  0.0389
Cl      0.0002  -2.2430  -0.2162
Cl      -0.0001  2.2472  0.2123
N       -1.4589  0.1780  -1.3989
N       -1.4720  -0.1822  1.4356
N       1.4965  0.1643  -1.3723
N       1.3524  -0.1681  1.2618
C       -2.7278  0.4163  -0.6573
C       -2.7280  -0.4099  0.6401
C       2.7770  0.4356  -0.6680
C       2.6789  -0.3993  0.6116
H       -1.3376  0.8283  -2.1584
H       -2.8230  1.4731  -0.4622
H       -3.5734  0.0980  -1.2485
H       -3.5881  -0.1239  1.2298
H       -2.7950  -1.4625  0.4271
H       -1.5322  0.7506  1.8276
H       -1.3994  -0.8460  2.1997
H       1.5387  -0.8006  -1.7062
H       1.3540  0.7765  -2.1708
H       3.6162  0.0968  -1.2549
H       2.8858  1.4924  -0.4836
H       2.7599  -1.4520  0.3797
H       3.4542  -0.1418  1.3148
H       1.2147  -0.8330  2.0060
H       1.3745  0.7593  1.6624
H       -1.4997  -0.7649  -1.7831
