27

Co      0.0000  0.0000  0.0000
Cl      0.0002  -2.2574  -0.2106
Cl      -0.0001  2.2575  0.2107
N       -1.5615  0.1517  -1.4120
N       -1.5615  -0.1519  1.4119
N       1.5615  0.1517  -1.4120
N       1.5615  -0.1514  1.4120
C       -2.7797  0.4467  -0.6405
C       -2.7800  -0.4460  0.6405
C       2.7798  0.4467  -0.6406
C       2.7799  -0.4456  0.6407
H       -1.0727  0.9054  -1.9513
H       -2.9915  1.4927  -0.4357
H       -3.6053  0.0372  -1.2217
H       -3.6098  -0.0361  1.2173
H       -2.9921  -1.4920  0.4357
H       -1.4961  0.7367  1.8831
H       -1.0731  -0.9059  1.9508
H       1.4918  -0.7374  -1.8824
H       1.0729  0.9051  -1.9516
H       3.6053  0.0368  -1.2218
H       2.9916  1.4927  -0.4364
H       2.9924  -1.4916  0.4364
H       3.6052  -0.0352  1.2220
H       1.0730  -0.9052  1.9512
H       1.4913  0.7375  1.8827
H       -1.4919  -0.7371  -1.8828
