27

Co      0.0000  0.0000  0.0000
Cl      0.0002  -2.3177  -0.2138
Cl      -0.0001  2.3178  0.2139
N       -1.3356  0.1687  -1.2477
N       -1.4142  -0.1688  1.3212
N       1.4142  0.1649  -1.3213
N       1.3356  -0.1646  1.2476
C       -2.7192  0.3646  -0.6523
C       -2.7686  -0.3786  0.6719
C       2.7684  0.3793  -0.6720
C       2.7195  -0.3635  0.6525
H       -1.3730  0.9423  -1.9227
H       -2.7855  1.4318  -0.5090
H       -3.4783  0.0768  -1.3693
H       -3.5621  -0.0658  1.3347
H       -2.8352  -1.4458  0.5434
H       -1.6876  0.6194  1.9364
H       -1.4716  -0.9232  2.0253
H       1.6961  -0.6200  -1.9320
H       1.4714  0.9186  -2.0298
H       3.5666  0.0703  -1.3302
H       2.8309  1.4503  -0.5402
H       2.7827  -1.4344  0.5059
H       3.4782  -0.0785  1.3696
H       1.3733  -0.9383  1.9263
H       1.5974  0.6054  1.8882
H       -1.5942  -0.6051  -1.8919
