27

Co      -0.0741  -0.0488  -0.0034
Cl      0.0068  -2.2595  -0.2200
Cl      0.0064  2.3269  0.2269
N       -1.4977  0.1173  -1.3589
N       -1.4191  -0.1073  1.2818
N       1.4863  0.1313  -1.3297
N       1.5648  -0.1209  1.4000
C       -2.7594  0.4378  -0.6295
C       -2.7105  -0.4223  0.6132
C       2.7659  0.4250  -0.6093
C       2.8152  -0.4386  0.6324
H       -1.2831  0.8456  -2.0173
H       -2.7486  1.4887  -0.3794
H       -3.6251  0.2332  -1.2390
H       -3.5367  -0.2352  1.2817
H       -2.7001  -1.4733  0.3552
H       -1.4652  0.7914  1.7266
H       -1.2223  -0.7984  1.9844
H       1.5773  -0.7249  -1.8528
H       1.3062  0.8711  -1.9776
H       3.6150  0.2441  -1.2557
H       2.7551  1.4723  -0.3468
H       2.8050  -1.4859  0.3913
H       3.7033  -0.2260  1.2200
H       1.4416  -0.7842  2.1510
H       1.6480  0.8037  1.8098
H       -1.5906  -0.7425  -1.8580
