27

Co      0.0000  -0.0427  -0.0422
Cl      0.0002  -2.3022  -0.2122
Cl      -0.0001  2.3655  0.2231
N       -1.4751  0.1510  -1.3660
N       -1.4620  -0.1370  1.3257
N       1.3966  0.1509  -1.2923
N       1.5405  -0.1365  1.3994
C       -2.8234  0.4006  -0.5837
C       -2.8236  -0.4056  0.6043
C       2.7744  0.3858  -0.5642
C       2.8727  -0.4199  0.6241
H       -1.3313  0.9375  -1.9786
H       -2.9178  1.4475  -0.3664
H       -3.6572  0.0831  -1.1982
H       -3.6424  -0.0483  1.2205
H       -2.9470  -1.4566  0.4117
H       -1.5246  0.7468  1.8066
H       -1.3074  -0.8535  2.0071
H       1.4864  -0.6569  -1.8934
H       1.2333  0.9568  -1.8757
H       3.5688  0.0925  -1.2347
H       2.8716  1.4328  -0.3327
H       2.9993  -1.4710  0.4467
H       3.7307  -0.0376  1.1785
H       1.4055  -0.8331  2.1105
H       1.6226  0.7623  1.8505
H       -1.5846  -0.6693  -1.9380
