27

Co      0.0000  0.0000  0.0000
Cl      0.0002  -2.3338  -0.2176
Cl      -0.0001  2.3339  0.2177
N       -1.5253  0.1553  -1.3176
N       -1.5253  -0.1554  1.3174
N       1.5253  0.1552  -1.3175
N       1.5253  -0.1550  1.3175
C       -2.7639  0.3781  -0.6144
C       -2.7641  -0.3774  0.6144
C       2.7640  0.3781  -0.6145
C       2.7641  -0.3770  0.6146
H       -1.3783  0.9122  -1.9590
H       -2.8691  1.4356  -0.4263
H       -3.6128  0.0559  -1.2019
H       -3.6128  -0.0548  1.2020
H       -2.8697  -1.4321  0.4263
H       -1.5741  0.6937  1.8469
H       -1.3787  -0.9128  1.9585
H       1.5743  -0.6943  -1.8461
H       1.3785  0.9119  -1.9593
H       3.6128  0.0555  -1.2020
H       2.8692  1.4328  -0.4270
H       2.8700  -1.4317  0.4270
H       3.6128  -0.0539  1.2022
H       1.3786  -0.9120  1.9589
H       1.5738  0.6944  1.8465
H       -1.5743  -0.6941  -1.8465
