27

Co      0.0250  0.0488  0.0034
Cl      0.0002  -2.3122  -0.2118
Cl      -0.0001  2.2449  0.2051
N       -1.4142  0.1744  -1.3043
N       -1.4927  -0.1846  1.3812
N       1.4518  0.1569  -1.2777
N       1.3732  -0.1667  1.2075
C       -2.7504  0.3717  -0.6501
C       -2.7997  -0.3857  0.6664
C       2.7995  0.3909  -0.6608
C       2.7506  -0.3751  0.6379
H       -1.2648  0.9383  -1.9310
H       -2.8702  1.4301  -0.4833
H       -3.5396  0.0370  -1.3113
H       -3.6280  -0.0328  1.2688
H       -2.9199  -1.4441  0.5075
H       -1.5480  0.6311  1.9718
H       -1.3264  -0.9865  1.9629
H       1.4659  -0.7185  -1.7592
H       1.2812  0.8827  -1.9516
H       3.5824  0.0351  -1.3177
H       2.9293  1.4532  -0.5009
H       2.8810  -1.4374  0.4564
H       3.4940  -0.0501  1.3537
H       1.1461  -0.9697  1.7774
H       1.3941  0.6399  1.8029
H       -1.4231  -0.6807  -1.8398
