27

Co      0.0000  0.0000  0.0000
Cl      0.0002  -2.2771  -0.2195
Cl      -0.0001  2.2771  0.2196
N       -1.3694  0.1311  -1.3232
N       -1.3694  -0.1312  1.3231
N       1.3694  0.1310  -1.3231
N       1.3693  -0.1307  1.3231
C       -2.7380  0.4346  -0.6603
C       -2.7382  -0.4339  0.6603
C       2.7381  0.4346  -0.6605
C       2.7382  -0.4335  0.6605
H       -1.1571  0.8516  -1.9848
H       -2.7396  1.4865  -0.4264
H       -3.5362  0.2246  -1.3562
H       -3.5362  -0.2235  1.3564
H       -2.7403  -1.4886  0.4264
H       -1.4236  0.7440  1.8126
H       -1.1575  -0.8521  1.9843
H       1.4238  -0.7446  -1.8119
H       1.1573  0.8513  -1.9850
H       3.5362  0.2242  -1.3564
H       2.7397  1.4893  -0.4271
H       2.7406  -1.4882  0.4271
H       3.5361  -0.2226  1.3565
H       1.1574  -0.8513  1.9847
H       1.4233  0.7447  1.8123
H       -1.4238  -0.7443  -1.8123
