27

Co      0.0741  -0.0061  0.0389
Cl      -0.0063  -2.2765  -0.2105
Cl      -0.0067  2.2806  0.2065
N       -1.4318  0.1729  -1.3135
N       -1.4449  -0.1771  1.3502
N       1.4433  0.1587  -1.3425
N       1.2992  -0.1625  1.2321
C       -2.8393  0.4105  -0.6873
C       -2.8395  -0.4041  0.6701
C       2.8329  0.4232  -0.7078
C       2.7349  -0.3870  0.6514
H       -1.2280  0.9276  -1.9334
H       -2.9361  1.4682  -0.5133
H       -3.6069  0.0973  -1.3869
H       -3.6216  -0.1232  1.3682
H       -2.9081  -1.4605  0.4781
H       -1.4884  0.6671  1.8940
H       -1.2898  -0.9453  1.9747
H       1.4692  -0.6974  -1.8539
H       1.2052  0.9014  -1.9736
H       3.6170  0.0856  -1.3704
H       2.9298  1.4875  -0.5472
H       2.8038  -1.4472  0.4433
H       3.4549  -0.1306  1.4302
H       1.0703  -0.9579  1.8088
H       1.3050  0.6562  1.8101
H       -1.4559  -0.6813  -1.8495
