27

Co      -0.0741  -0.0488  -0.0034
Cl      0.0068  -2.3073  -0.2142
Cl      0.0064  2.3747  0.2211
N       -1.5133  0.1600  -1.3544
N       -1.5133  -0.1500  1.3509
N       1.5804  0.1703  -1.3989
N       1.5804  -0.1599  1.3955
C       -2.7313  0.3747  -0.6179
C       -2.7316  -0.3740  0.6212
C       2.7870  0.3767  -0.6173
C       2.7871  -0.3756  0.6207
H       -1.3279  0.9638  -1.9309
H       -2.8265  1.4322  -0.4274
H       -3.5953  0.0614  -1.1852
H       -3.5952  -0.0536  1.1887
H       -2.8271  -1.4287  0.4375
H       -1.5426  0.7129  1.8559
H       -1.3654  -0.8970  2.0011
H       1.6584  -0.6464  -1.9784
H       1.4493  0.9659  -1.9980
H       3.6735  0.0663  -1.1627
H       2.8783  1.4314  -0.4254
H       2.8791  -1.4303  0.4355
H       3.6734  -0.0580  1.1662
H       1.4865  -0.8987  2.0684
H       1.6309  0.7105  1.8912
H       -1.5698  -0.6493  -1.9431
