27

Co      -0.0250  0.0061  -0.0389
Cl      0.0002  -2.2523  -0.2085
Cl      -0.0001  2.2483  0.2127
N       -1.4503  0.1462  -1.2726
N       -1.5158  -0.1422  1.3093
N       1.4913  0.1597  -1.3727
N       1.5567  -0.1554  1.4095
C       -2.7775  0.3972  -0.6168
C       -2.8268  -0.4170  0.6536
C       2.7775  0.3926  -0.6260
C       2.8268  -0.4120  0.6629
H       -1.2708  0.9019  -1.9103
H       -2.8281  1.4499  -0.3899
H       -3.5738  0.1553  -1.3042
H       -3.6474  -0.1174  1.2839
H       -2.9064  -1.4737  0.4594
H       -1.5605  0.7293  1.7988
H       -1.3080  -0.8657  1.9712
H       1.5545  -0.6806  -1.9187
H       1.3529  0.9335  -1.9970
H       3.6193  0.1503  -1.2588
H       2.8145  1.4453  -0.4041
H       2.8931  -1.4688  0.4737
H       3.6929  -0.1120  1.2386
H       1.3899  -0.8968  2.0581
H       1.6194  0.7073  1.9191
H       -1.4954  -0.7011  -1.7985
