27

Co      0.0000  -0.0061  0.0389
Cl      0.0002  -2.2430  -0.2162
Cl      -0.0001  2.2472  0.2123
N       -1.4453  0.1417  -1.3936
N       -1.3798  -0.1459  1.3567
N       1.4453  0.1416  -1.3936
N       1.3798  -0.1454  1.3568
C       -2.8063  0.4079  -0.6792
C       -2.7575  -0.3867  0.6424
C       2.8064  0.4078  -0.6793
C       2.7575  -0.3863  0.6426
H       -1.3227  0.8792  -2.0594
H       -2.7051  1.4618  -0.4289
H       -3.6828  0.2791  -1.3060
H       -3.6091  -0.3148  1.3266
H       -2.6280  -1.4394  0.3594
H       -1.3222  0.7229  1.8635
H       -1.2863  -0.9166  1.9976
H       1.3878  -0.7501  -1.8628
H       1.3229  0.8789  -2.0597
H       3.6827  0.2787  -1.3061
H       2.7052  1.4646  -0.4295
H       2.6283  -1.4390  0.3600
H       3.6091  -0.3139  1.3267
H       1.2862  -0.9158  1.9980
H       1.3219  0.7236  1.8632
H       -1.3878  -0.7519  -1.8632
