27

Co      0.0000  0.0000  0.0000
Cl      0.0002  -2.2946  -0.2123
Cl      -0.0001  2.2947  0.2124
N       -1.5764  0.1609  -1.3659
N       -1.4979  -0.1610  1.2922
N       1.4979  0.1608  -1.2922
N       1.5764  -0.1606  1.3659
C       -2.8607  0.4157  -0.6593
C       -2.8118  -0.4002  0.6396
C       2.8117  0.4009  -0.6398
C       2.8609  -0.4145  0.6595
H       -1.2576  0.8868  -1.9979
H       -2.9162  1.4752  -0.4731
H       -3.8002  0.0918  -1.1309
H       -3.7118  -0.1005  1.1703
H       -2.8677  -1.4598  0.4388
H       -1.4543  0.7137  1.7860
H       -1.1599  -0.9070  1.8943
H       1.4546  -0.7143  -1.7853
H       1.1597  0.9061  -1.8950
H       3.7118  0.1012  -1.1703
H       2.8672  1.4605  -0.4394
H       2.9171  -1.4741  0.4738
H       3.8001  -0.0898  1.1312
H       1.2580  -0.8865  1.9978
H       1.5523  0.7291  1.8299
H       -1.5528  -0.7288  -1.8299
