27

Co      0.0000  0.0000  0.0000
Cl      0.0002  -2.3215  -0.2213
Cl      -0.0001  2.3215  0.2214
N       -1.4170  0.1700  -1.3032
N       -1.4170  -0.1701  1.3031
N       1.4170  0.1699  -1.3031
N       1.4170  -0.1697  1.3031
C       -2.7311  0.4164  -0.6394
C       -2.7313  -0.4157  0.6394
C       2.7312  0.4164  -0.6395
C       2.7313  -0.4153  0.6396
H       -1.2904  0.8033  -2.0870
H       -2.8356  1.4711  -0.4364
H       -3.5300  0.1007  -1.2949
H       -3.5300  -0.0996  1.2950
H       -2.8362  -1.4704  0.4364
H       -1.4484  0.7818  1.6673
H       -1.2909  -0.8038  2.0866
H       1.4486  -0.7824  -1.6666
H       1.2906  0.8030  -2.0828
H       3.5300  0.1047  -1.2950
H       2.8357  1.4711  -0.4370
H       2.8365  -1.4700  0.4370
H       3.5299  -0.1031  1.2952
H       1.2863  -0.8030  2.0825
H       1.4481  0.7825  1.6669
H       -1.4487  -0.7822  -1.6670
