27

Co      -0.0741  0.0061  -0.0389
Cl      0.0068  -2.3468  -0.2231
Cl      0.0064  2.3428  0.2273
N       -1.5201  0.1290  -1.3842
N       -1.5070  -0.1250  1.3473
N       1.5087  0.1431  -1.3551
N       1.6526  -0.1387  1.4656
C       -2.7642  0.4283  -0.6273
C       -2.7644  -0.4333  0.6444
C       2.7708  0.4155  -0.6071
C       2.8691  -0.4496  0.6636
H       -1.1903  0.8466  -2.0247
H       -2.7245  1.4821  -0.3790
H       -3.7325  0.2151  -1.1038
H       -3.7177  -0.1870  1.1228
H       -2.7538  -1.4911  0.4142
H       -1.4838  0.7768  1.7899
H       -1.1293  -0.8299  1.9825
H       1.5034  -0.7477  -1.8286
H       1.2135  0.8721  -1.9850
H       3.7223  0.2261  -1.1206
H       2.7310  1.4656  -0.3464
H       2.8586  -1.5038  0.4503
H       3.8842  -0.1779  1.0610
H       1.3486  -0.8157  2.1491
H       1.6665  0.7891  1.8732
H       -1.5168  -0.7632  -1.8338
