27

Co      0.0250  -0.0061  0.0389
Cl      0.0002  -2.3194  -0.2233
Cl      -0.0001  2.3236  0.2193
N       -1.4746  0.1438  -1.3628
N       -1.4092  -0.1480  1.3259
N       1.4337  0.1301  -1.2626
N       1.3682  -0.1339  1.2258
C       -2.7601  0.4155  -0.6579
C       -2.7112  -0.3944  0.6211
C       2.7601  0.4200  -0.6490
C       2.7112  -0.3985  0.6122
H       -1.2967  0.8672  -2.0282
H       -2.8234  1.4723  -0.4647
H       -3.6073  0.1198  -1.2575
H       -3.5337  -0.1555  1.2780
H       -2.7463  -1.4470  0.3952
H       -1.4674  0.7030  1.8571
H       -1.2603  -0.9045  1.9664
H       1.4739  -0.7530  -1.7357
H       1.2149  0.8350  -1.9419
H       3.5617  0.1240  -1.3031
H       2.8371  1.4768  -0.4517
H       2.7603  -1.4512  0.3822
H       3.4881  -0.1592  1.3237
H       1.1783  -0.8719  1.8802
H       1.4079  0.7265  1.7361
H       -1.5331  -0.7320  -1.8568
