27

Co      0.0000  0.0000  0.0000
Cl      0.0002  -2.2894  -0.2159
Cl      -0.0001  2.2895  0.2160
N       -1.5141  0.1124  -1.3511
N       -1.5141  -0.1125  1.3510
N       1.5141  0.1123  -1.3510
N       1.5141  -0.1120  1.3511
C       -2.7533  0.4403  -0.6313
C       -2.7535  -0.4396  0.6313
C       2.7534  0.4402  -0.6314
C       2.7535  -0.4391  0.6315
H       -0.9588  0.9473  -1.7832
H       -2.9212  1.4862  -0.4159
H       -3.5694  0.0776  -1.2400
H       -3.5739  -0.0765  1.2357
H       -2.9219  -1.4855  0.4159
H       -1.4616  0.7033  1.9432
H       -0.9592  -0.9478  1.7827
H       1.4574  -0.7040  -1.9425
H       0.9590  0.9470  -1.7879
H       3.5694  0.0727  -1.2402
H       2.9213  1.4863  -0.4165
H       2.9222  -1.4852  0.4166
H       3.5693  -0.0712  1.2403
H       0.9636  -0.9471  1.7875
H       1.4569  0.7040  1.9429
H       -1.4574  -0.7037  -1.9429
