27

Co      -0.0250  0.0061  -0.0389
Cl      0.0002  -2.3359  -0.2156
Cl      -0.0001  2.3318  0.2198
N       -1.4876  0.1167  -1.2939
N       -1.4745  -0.1128  1.2570
N       1.4501  0.1303  -1.3204
N       1.5940  -0.1259  1.4308
C       -2.8049  0.3940  -0.6222
C       -2.8052  -0.3990  0.6394
C       2.7559  0.3747  -0.6118
C       2.8542  -0.4088  0.6683
H       -1.2586  0.9600  -1.8208
H       -2.8117  1.4467  -0.3971
H       -3.6292  0.1819  -1.2869
H       -3.6145  -0.1538  1.3058
H       -2.8410  -1.4558  0.4323
H       -1.5221  0.6674  1.9001
H       -1.1976  -0.9434  1.7785
H       1.5161  -0.6187  -2.0200
H       1.2425  1.0112  -1.8088
H       3.5864  0.1823  -1.2807
H       2.7491  1.4274  -0.3770
H       2.8767  -1.4656  0.4809
H       3.7483  -0.1341  1.2212
H       1.3821  -0.9548  1.9729
H       1.6792  0.6601  2.0646
H       -1.5551  -0.6538  -1.9440
