27

Co      0.0741  0.0427  0.0422
Cl      -0.0063  -2.3603  -0.2267
Cl      -0.0067  2.2971  0.2159
N       -1.4603  0.1371  -1.3539
N       -1.4734  -0.1514  1.3940
N       1.4717  0.1266  -1.3829
N       1.3277  -0.1405  1.2759
C       -2.7585  0.4042  -0.6400
C       -2.7588  -0.3977  0.6194
C       2.7521  0.4169  -0.6604
C       2.6541  -0.3806  0.6007
H       -1.4599  0.8575  -2.0671
H       -2.8293  1.4561  -0.4298
H       -3.5040  0.1553  -1.3948
H       -3.5187  -0.1879  1.3728
H       -2.8013  -1.4455  0.3845
H       -1.6437  0.6496  1.9959
H       -1.4847  -0.9425  2.0377
H       1.5939  -0.7439  -1.8720
H       1.4371  0.8351  -2.1035
H       3.5141  0.1398  -1.3783
H       2.8268  1.4688  -0.4674
H       2.7008  -1.4285  0.3535
H       3.3521  -0.1916  1.4348
H       1.2652  -0.9589  1.8681
H       1.4567  0.6387  1.9157
H       -1.5843  -0.7278  -1.8638
