27

Co      0.0741  -0.0061  0.0389
Cl      -0.0063  -2.2713  -0.2141
Cl      -0.0067  2.2754  0.2101
N       -1.3509  0.1731  -1.3172
N       -1.3640  -0.1773  1.3540
N       1.3624  0.1589  -1.3462
N       1.2183  -0.1627  1.2358
C       -2.7870  0.3732  -0.7011
C       -2.7873  -0.3667  0.6839
C       2.7806  0.3859  -0.7215
C       2.6826  -0.3496  0.6652
H       -1.3127  0.9189  -2.0017
H       -2.6845  1.4444  -0.5262
H       -3.6958  0.1943  -1.2653
H       -3.7060  -0.2201  1.2512
H       -2.6566  -1.4367  0.4911
H       -1.4542  0.6560  1.9114
H       -1.3745  -0.9366  2.0430
H       1.4395  -0.6864  -1.8713
H       1.2899  0.8928  -2.0419
H       3.7059  0.1825  -1.2489
H       2.6783  1.4637  -0.5602
H       2.5523  -1.4234  0.4563
H       3.5439  -0.2276  1.3087
H       1.1550  -0.9493  1.8772
H       1.2754  0.6452  1.8275
H       -1.4262  -0.6703  -1.8669
