27

Co      0.0000  -0.0488  -0.0034
Cl      0.0002  -2.2558  -0.2125
Cl      -0.0001  2.3232  0.2194
N       -1.5493  0.1509  -1.3680
N       -1.4708  -0.1410  1.2909
N       1.4708  0.1509  -1.2943
N       1.5493  -0.1405  1.3646
C       -2.7413  0.4218  -0.6269
C       -2.6925  -0.4063  0.6106
C       2.6923  0.4070  -0.6074
C       2.7416  -0.4206  0.6304
H       -1.2986  0.9076  -1.9802
H       -2.9469  1.4793  -0.4722
H       -3.5753  -0.0055  -1.1876
H       -3.4869  0.0035  1.2304
H       -2.8985  -1.4610  0.4480
H       -1.6180  0.7122  1.8068
H       -1.2378  -0.8605  1.9474
H       1.6452  -0.6488  -1.8936
H       1.2006  0.9270  -1.8774
H       3.4869  0.0040  -1.2270
H       2.8979  1.4617  -0.4385
H       2.9478  -1.4754  0.4830
H       3.5752  0.0142  1.1913
H       1.3359  -0.8401  2.0508
H       1.7159  0.7276  1.8507
H       -1.7434  -0.6633  -1.9382
