27

Co      0.0000  0.0000  0.0000
Cl      0.0002  -2.3018  -0.2123
Cl      -0.0001  2.3019  0.2124
N       -1.5671  0.1563  -1.4001
N       -1.5671  -0.1565  1.4000
N       1.5671  0.1563  -1.4000
N       1.5670  -0.1560  1.4000
C       -2.8268  0.4056  -0.6265
C       -2.8271  -0.4049  0.6264
C       2.8269  0.4056  -0.6266
C       2.8271  -0.4045  0.6267
H       -1.3285  0.9435  -1.9706
H       -2.9527  1.4467  -0.3826
H       -3.5901  0.1212  -1.3456
H       -3.5946  -0.1201  1.3412
H       -2.9534  -1.4460  0.3826
H       -1.4623  0.7186  1.9009
H       -1.3289  -0.9441  1.9701
H       1.4580  -0.7193  -1.9002
H       1.3287  0.9432  -1.9708
H       3.5901  0.1208  -1.3457
H       2.9528  1.4467  -0.3832
H       2.9537  -1.4456  0.3832
H       3.5900  -0.1192  1.3459
H       1.3288  -0.9433  1.9705
H       1.4575  0.7193  1.9006
H       -1.4581  -0.7190  -1.9006
