27

Co      0.0000  -0.0488  -0.0034
Cl      0.0002  -2.2630  -0.2125
Cl      -0.0001  2.3303  0.2194
N       -1.5226  0.1575  -1.4191
N       -1.5226  -0.1476  1.4156
N       1.5226  0.1575  -1.4190
N       1.5225  -0.1471  1.4156
C       -2.7571  0.4121  -0.6345
C       -2.7573  -0.4114  0.6378
C       2.7571  0.4121  -0.6346
C       2.7573  -0.4110  0.6381
H       -1.1085  0.9553  -1.9300
H       -2.8493  1.4581  -0.3900
H       -3.6294  0.1193  -1.1992
H       -3.6339  -0.1115  1.1982
H       -2.8500  -1.4574  0.4001
H       -1.3271  0.7870  1.8256
H       -1.1460  -0.8885  2.0002
H       1.3497  -0.7237  -1.9124
H       1.1087  0.9550  -1.9302
H       3.6294  0.1189  -1.1993
H       2.8495  1.4582  -0.3906
H       2.8503  -1.4571  0.4008
H       3.6293  -0.1106  1.2028
H       1.1459  -0.8878  2.0006
H       1.3223  0.7877  1.8253
H       -1.3497  -0.7234  -1.9128
