27

Co      -0.0741  0.0061  -0.0389
Cl      0.0068  -2.2915  -0.2139
Cl      0.0064  2.2875  0.2181
N       -1.4462  0.1442  -1.3425
N       -1.4331  -0.1403  1.3056
N       1.4348  0.1545  -1.3134
N       1.5788  -0.1502  1.4239
C       -2.7386  0.4013  -0.6315
C       -2.7388  -0.4063  0.6487
C       2.7451  0.3885  -0.6113
C       2.8435  -0.4226  0.6678
H       -1.2682  0.9015  -1.9770
H       -2.7772  1.4540  -0.4134
H       -3.5696  0.1508  -1.2696
H       -3.5548  -0.1227  1.2886
H       -2.8064  -1.4631  0.4486
H       -1.4664  0.7175  1.8228
H       -1.2072  -0.8849  1.9348
H       1.4899  -0.6884  -1.8577
H       1.2914  0.9233  -1.9410
H       3.5594  0.1655  -1.2864
H       2.7799  1.4413  -0.3770
H       2.9075  -1.4794  0.4809
H       3.7213  -0.1173  1.2268
H       1.4265  -0.8669  2.1051
H       1.6530  0.7298  1.9023
H       -1.4995  -0.7040  -1.8667
