27

Co      0.0000  0.0000  0.0000
Cl      0.0002  -2.2843  -0.2195
Cl      -0.0001  2.2843  0.2196
N       -1.3617  0.1432  -1.3133
N       -1.4403  -0.1433  1.3868
N       1.4403  0.1431  -1.3869
N       1.3617  -0.1429  1.3133
C       -2.6766  0.3950  -0.6480
C       -2.7259  -0.4090  0.6677
C       2.7257  0.4097  -0.6678
C       2.6768  -0.3939  0.6482
H       -1.2473  0.8737  -1.9977
H       -2.6406  1.4633  -0.4644
H       -3.5899  0.1684  -1.1831
H       -3.6737  -0.1575  1.1485
H       -2.6904  -1.4773  0.4987
H       -1.6673  0.6923  1.9206
H       -1.3459  -0.8546  2.1003
H       1.6721  -0.6930  -1.9199
H       1.3457  0.8538  -2.1011
H       3.6782  0.1582  -1.1440
H       2.6898  1.4780  -0.4994
H       2.6416  -1.4622  0.4650
H       3.5898  -0.1664  1.1834
H       1.2476  -0.8735  1.9976
H       1.5734  0.6783  1.8761
H       -1.5739  -0.6780  -1.8761
