27

Co      -0.0250  0.0061  -0.0389
Cl      0.0002  -2.3024  -0.2214
Cl      -0.0001  2.2984  0.2255
N       -1.5458  0.1157  -1.3651
N       -1.5327  -0.1117  1.3281
N       1.5083  0.1330  -1.3915
N       1.6522  -0.1287  1.5020
C       -2.7167  0.4076  -0.5692
C       -2.7169  -0.4126  0.5864
C       2.6677  0.3883  -0.5588
C       2.7660  -0.4224  0.6154
H       -1.3336  0.8641  -1.9952
H       -2.7946  1.4458  -0.2791
H       -3.5217  0.1830  -1.2504
H       -3.5114  -0.1549  1.2648
H       -2.8239  -1.4520  0.3143
H       -1.4404  0.7969  1.7685
H       -1.2726  -0.8475  1.9530
H       1.4261  -0.7482  -1.8922
H       1.3175  0.9190  -1.9751
H       3.4788  0.1841  -1.2443
H       2.7357  1.4199  -0.2628
H       2.8633  -1.4581  0.3667
H       3.6407  -0.1359  1.1847
H       1.4527  -0.8627  2.1392
H       1.5893  0.7896  1.9368
H       -1.4689  -0.7833  -1.8124
