27

Co      0.0000  -0.0732  -0.0050
Cl      0.0002  -2.2575  -0.2054
Cl      -0.0001  2.3586  0.2156
N       -1.6758  0.1196  -1.3908
N       -1.6758  -0.1046  1.3857
N       1.6758  0.1196  -1.3908
N       1.6758  -0.1041  1.3857
C       -2.7893  0.4064  -0.5791
C       -2.7896  -0.4057  0.5841
C       2.7894  0.4063  -0.5792
C       2.7896  -0.4052  0.5844
H       -1.1911  1.1028  -1.6705
H       -3.1116  1.4449  -0.3772
H       -3.5057  -0.0392  -1.2873
H       -3.5124  0.0503  1.2857
H       -3.1122  -1.4400  0.3924
H       -1.6731  0.6596  2.0596
H       -1.2471  -1.0023  1.7761
H       1.7070  -0.5643  -2.1902
H       1.1913  1.1025  -1.6774
H       3.5056  -0.0462  -1.2874
H       3.1117  1.4407  -0.3778
H       3.1125  -1.4396  0.3930
H       3.5056  0.0579  1.2926
H       1.2536  -1.0016  1.7831
H       1.6661  0.6604  2.0592
H       -1.7070  -0.5641  -2.1905
