27

Co      0.0000  0.0732  0.0050
Cl      0.0002  -2.3214  -0.2264
Cl      -0.0001  2.2204  0.2164
N       -1.2707  0.1751  -1.3020
N       -1.2707  -0.1904  1.3069
N       1.2707  0.1750  -1.3019
N       1.2707  -0.1899  1.3070
C       -2.7434  0.4040  -0.7004
C       -2.7436  -0.4033  0.6954
C       2.7435  0.4039  -0.7005
C       2.7436  -0.4028  0.6956
H       -1.4050  0.6855  -2.3086
H       -2.5231  1.4748  -0.4821
H       -3.6970  0.3190  -1.2481
H       -3.6902  -0.3280  1.2500
H       -2.5238  -1.4783  0.4670
H       -1.3811  0.7583  1.6681
H       -1.3499  -0.7870  2.2021
H       1.3477  -0.8549  -1.5361
H       1.4052  0.6852  -2.3022
H       3.6970  0.3253  -1.2482
H       2.5232  1.4791  -0.4828
H       2.5241  -1.4780  0.4676
H       3.6969  -0.3338  1.2433
H       1.3432  -0.7862  2.1958
H       1.3876  0.7590  1.6678
H       -1.3478  -0.8546  -1.5365
