27

Co      0.0000  -0.0732  -0.0050
Cl      0.0002  -2.3219  -0.2247
Cl      -0.0001  2.4230  0.2349
N       -1.5966  0.1181  -1.4319
N       -1.5966  -0.1030  1.4267
N       1.5967  0.1236  -1.4318
N       1.5966  -0.1082  1.4267
C       -2.7980  0.4451  -0.5892
C       -2.7982  -0.4444  0.5942
C       2.7981  0.4451  -0.5893
C       2.7982  -0.4440  0.5944
H       -1.2903  0.9039  -1.9835
H       -2.8551  1.4739  -0.2532
H       -3.5645  0.2710  -1.3486
H       -3.5712  -0.2598  1.3470
H       -2.8558  -1.4732  0.2684
H       -1.4318  0.8637  1.7804
H       -1.3463  -0.8035  2.0890
H       1.4600  -0.7684  -1.9166
H       1.2905  0.9092  -1.9781
H       3.5645  0.2650  -1.3487
H       2.8609  1.4683  -0.2595
H       2.8617  -1.4672  0.2747
H       3.5644  -0.2534  1.3539
H       1.3462  -0.8083  2.0838
H       1.4191  0.8645  1.7857
H       -1.4656  -0.7682  -1.9114
