27

Co      0.0000  0.0000  0.0000
Cl      0.0002  -2.3724  -0.2297
Cl      -0.0001  2.3725  0.2298
N       -1.6707  0.1215  -1.4389
N       -1.5528  -0.1216  1.3283
N       1.5529  0.1270  -1.3283
N       1.6706  -0.1268  1.4388
C       -2.7867  0.4114  -0.5956
C       -2.7133  -0.3886  0.5661
C       2.7131  0.3893  -0.5662
C       2.7869  -0.4103  0.5958
H       -1.5576  0.8285  -2.1495
H       -2.8055  1.4647  -0.3621
H       -3.7453  0.1598  -1.0720
H       -3.6127  -0.1734  1.1310
H       -2.7325  -1.4377  0.3105
H       -1.6308  0.7378  1.8342
H       -1.4108  -0.8585  1.9944
H       1.6254  -0.7384  -1.8391
H       1.4105  0.8632  -1.9895
H       3.6127  0.1685  -1.1310
H       2.7375  1.4328  -0.3168
H       2.8120  -1.4538  0.3684
H       3.7452  -0.1522  1.0723
H       1.5579  -0.8338  2.1438
H       1.7722  0.7606  1.9058
H       -1.7783  -0.7602  -1.9002
