27

Co      0.0376  0.0640  0.0633
Cl      0.0002  -2.2539  -0.2102
Cl      -0.0001  2.1591  0.1941
N       -1.3089  0.2326  -1.3471
N       -1.3286  -0.2540  1.4073
N       1.3653  0.2064  -1.3072
N       1.1493  -0.2274  1.1466
C       -2.8024  0.3655  -0.7482
C       -2.8027  -0.3562  0.7174
C       2.8762  0.3944  -0.7641
C       2.7291  -0.3405  0.6745
H       -1.4461  0.8113  -2.2667
H       -2.6996  1.4450  -0.6170
H       -3.7401  0.1412  -1.2615
H       -3.7554  -0.1907  1.2352
H       -2.6574  -1.4338  0.5491
H       -1.4280  0.6385  1.8668
H       -1.4830  -0.9386  2.2228
H       1.4097  -0.8091  -1.5482
H       1.4706  0.7281  -2.2908
H       3.8043  0.1452  -1.2710
H       2.7882  1.4838  -0.6430
H       2.5989  -1.4238  0.4721
H       3.5613  -0.2237  1.3557
H       1.2061  -0.9138  1.9378
H       1.2041  0.6513  1.6136
H       -1.3456  -0.7557  -1.6689
