27

Co      0.1111  -0.0092  0.0583
Cl      -0.0096  -2.2756  -0.2190
Cl      -0.0099  2.2818  0.2129
N       -1.4392  0.1407  -1.2914
N       -1.4589  -0.1470  1.3466
N       1.4564  0.1250  -1.3350
N       1.2403  -0.1309  1.1693
C       -2.8701  0.4526  -0.6830
C       -2.8704  -0.4433  0.6572
C       2.8605  0.4716  -0.7136
C       2.7134  -0.4178  0.6290
H       -1.2154  0.8375  -1.9728
H       -2.8943  1.5061  -0.4595
H       -3.6377  0.2221  -1.4184
H       -3.6598  -0.2615  1.3903
H       -2.8520  -1.4949  0.4068
H       -1.5364  0.7304  1.8304
H       -1.3079  -0.8638  2.0349
H       1.5019  -0.7756  -1.7763
H       1.1811  0.8041  -2.0273
H       3.6529  0.1991  -1.3935
H       2.8904  1.5295  -0.5157
H       2.7011  -1.4695  0.3599
H       3.4099  -0.2674  1.4833
H       0.9787  -0.8888  1.7803
H       1.2560  0.7137  1.7104
H       -1.4876  -0.7516  -1.7638
