27

Co      -0.0376  0.0000  0.0000
Cl      0.0002  -2.3668  -0.2185
Cl      -0.0001  2.3669  0.2186
N       -1.5946  0.1567  -1.3345
N       -1.5946  -0.1568  1.3344
N       1.6561  0.1771  -1.4846
N       1.6560  -0.1768  1.4847
C       -2.7487  0.3785  -0.5895
C       -2.7489  -0.3778  0.5895
C       2.7488  0.3716  -0.6033
C       2.7489  -0.3705  0.6034
H       -1.1004  0.9387  -1.8425
H       -2.9532  1.4243  -0.3625
H       -3.6266  -0.0187  -1.1029
H       -3.6334  0.0198  1.0963
H       -2.9538  -1.4194  0.3625
H       -1.2732  0.7722  1.7544
H       -1.1008  -0.9392  1.8420
H       1.3555  -0.7387  -1.9347
H       1.2235  0.9862  -1.9724
H       3.6949  -0.0259  -1.0348
H       2.9328  1.4133  -0.3836
H       2.9336  -1.4122  0.3837
H       3.6948  0.0275  1.0349
H       1.2237  -0.9862  1.9721
H       1.3550  0.7388  1.9351
H       -1.2667  -0.7726  -1.7541
