27

Co      0.0000  -0.0640  -0.0633
Cl      0.0002  -2.2420  -0.2078
Cl      -0.0001  2.3369  0.2241
N       -1.4664  0.1623  -1.2960
N       -1.5646  -0.1411  1.3460
N       1.4664  0.1622  -1.2959
N       1.5645  -0.1406  1.3461
C       -2.6746  0.3518  -0.5716
C       -2.7485  -0.3818  0.6319
C       2.6747  0.3518  -0.5717
C       2.7485  -0.3813  0.6321
H       -1.3272  0.9891  -1.8652
H       -2.7675  1.4077  -0.3573
H       -3.5250  0.0670  -1.1664
H       -3.6354  -0.0006  1.1410
H       -2.8847  -1.4395  0.4767
H       -1.5982  0.7658  1.7855
H       -1.4384  -0.8335  2.0628
H       1.5407  -0.6306  -1.9161
H       1.3274  0.9888  -1.8654
H       3.5250  0.0666  -1.1666
H       2.7676  1.4035  -0.3579
H       2.8850  -1.4392  0.4774
H       3.6353  0.0003  1.1411
H       1.4383  -0.8327  2.0632
H       1.5980  0.7665  1.7852
H       -1.5407  -0.6272  -1.9165
