27

Co      0.0000  0.0732  0.0050
Cl      0.0002  -2.2734  -0.2184
Cl      -0.0001  2.1724  0.2084
N       -1.4308  0.1786  -1.3751
N       -1.4308  -0.1939  1.3800
N       1.4308  0.1785  -1.3750
N       1.4307  -0.1934  1.3801
C       -2.7085  0.4210  -0.6489
C       -2.7087  -0.4203  0.6439
C       2.7086  0.4210  -0.6491
C       2.7087  -0.4199  0.6441
H       -1.3697  0.7338  -2.2623
H       -2.8146  1.4757  -0.4495
H       -3.5364  0.0956  -1.2615
H       -3.5363  -0.1046  1.2566
H       -2.8152  -1.4750  0.4343
H       -1.4860  0.7509  1.7498
H       -1.3146  -0.8353  2.1557
H       1.4458  -0.8475  -1.6178
H       1.3699  0.7335  -2.2558
H       3.5363  0.1019  -1.2616
H       2.8147  1.4757  -0.4501
H       2.8155  -1.4746  0.4350
H       3.5363  -0.1104  1.2567
H       1.3078  -0.8346  2.1495
H       1.4857  0.7516  1.7494
H       -1.4458  -0.8472  -1.6181
