27

Co      -0.0376  0.0092  -0.0583
Cl      0.0002  -2.3755  -0.2266
Cl      -0.0001  2.3694  0.2329
N       -1.5909  0.1143  -1.3361
N       -1.5712  -0.1083  1.2808
N       1.5345  0.1404  -1.3758
N       1.7504  -0.1339  1.5415
C       -2.7499  0.3995  -0.5611
C       -2.7501  -0.4073  0.5869
C       2.6763  0.3705  -0.5454
C       2.8237  -0.4222  0.6302
H       -1.4685  0.8322  -2.0386
H       -2.7574  1.4497  -0.2997
H       -3.6559  0.1908  -1.1214
H       -3.6338  -0.1492  1.1498
H       -2.8010  -1.4595  0.3524
H       -1.6355  0.7763  1.7420
H       -1.3769  -0.8070  1.9755
H       1.6207  -0.7029  -1.9279
H       1.4444  0.9147  -2.0084
H       3.5916  0.1927  -1.1122
H       2.6690  1.4110  -0.2749
H       2.8601  -1.4688  0.4307
H       3.8345  -0.1212  1.0228
H       1.6470  -0.8301  2.2547
H       1.8657  0.7650  1.9945
H       -1.6849  -0.7558  -1.8080
