27

Co      0.0000  -0.0092  0.0583
Cl      0.0002  -2.2198  -0.2164
Cl      -0.0001  2.2260  0.2104
N       -1.4593  0.1434  -1.3716
N       -1.3612  -0.1497  1.3163
N       1.4594  0.1433  -1.3715
N       1.3612  -0.1492  1.3163
C       -2.7587  0.4163  -0.6945
C       -2.6854  -0.3849  0.6393
C       2.7588  0.4162  -0.6946
C       2.6854  -0.3845  0.6395
H       -1.3712  0.8292  -2.1171
H       -2.7115  1.4944  -0.5623
H       -3.7538  0.1396  -1.1013
H       -3.6365  -0.1937  1.1389
H       -2.5956  -1.4569  0.4580
H       -1.6601  0.6435  1.9106
H       -1.3164  -0.8849  2.0246
H       1.7653  -0.6840  -1.9098
H       1.3714  0.8289  -2.1173
H       3.7537  0.1392  -1.1015
H       2.7116  1.4944  -0.5629
H       2.5959  -1.4565  0.4587
H       3.6433  -0.1929  1.1323
H       1.3164  -0.8841  2.0250
H       1.6666  0.6442  1.9102
H       -1.7653  -0.6868  -1.9102
