27

Co      -0.1111  -0.0732  -0.0050
Cl      0.0101  -2.3163  -0.2134
Cl      0.0097  2.4173  0.2236
N       -1.4911  0.1620  -1.3837
N       -1.4911  -0.1470  1.3785
N       1.5918  0.1775  -1.4505
N       1.5917  -0.1621  1.4455
C       -2.7687  0.3975  -0.6449
C       -2.7690  -0.3968  0.6500
C       2.8522  0.4005  -0.6440
C       2.8523  -0.3994  0.6491
H       -1.2583  0.9817  -1.9269
H       -2.8226  1.4522  -0.4390
H       -3.6134  0.1277  -1.2580
H       -3.6133  -0.1165  1.2632
H       -2.8232  -1.4515  0.4541
H       -1.5081  0.7275  1.8646
H       -1.3143  -0.8813  2.0325
H       1.6817  -0.6275  -2.0486
H       1.4403  0.9851  -2.0275
H       3.7307  0.1352  -1.2242
H       2.9003  1.4552  -0.4356
H       2.9011  -1.4541  0.4507
H       3.7306  -0.1236  1.2294
H       1.4960  -0.8842  2.1332
H       1.6408  0.7235  1.9177
H       -1.5488  -0.6320  -1.9956
