27

Co      0.1111  0.0732  0.0050
Cl      -0.0096  -2.2570  -0.2072
Cl      -0.0099  2.1560  0.1972
N       -1.3434  0.1730  -1.3197
N       -1.3434  -0.1883  1.3247
N       1.2428  0.1517  -1.2528
N       1.2427  -0.1666  1.2579
C       -2.8313  0.3974  -0.7133
C       -2.8316  -0.3967  0.7082
C       2.7480  0.3944  -0.7145
C       2.7482  -0.3933  0.7095
H       -1.5305  0.8838  -2.1076
H       -2.8317  1.4666  -0.5877
H       -3.5725  0.1548  -1.4803
H       -3.5656  -0.1638  1.4821
H       -2.8324  -1.4701  0.5725
H       -1.7558  0.5282  2.0538
H       -1.4754  -0.9854  2.0010
H       1.5951  -0.6294  -1.8627
H       1.3489  0.8742  -2.0131
H       3.4551  0.1521  -1.5144
H       2.7486  1.4735  -0.5867
H       2.7494  -1.4724  0.5716
H       3.4550  -0.1607  1.5095
H       1.2935  -0.9753  1.9067
H       1.6350  0.5336  1.9944
H       -1.7225  -0.6245  -1.9222
