27

Co      -0.1111  -0.0640  -0.0633
Cl      0.0101  -2.3086  -0.2104
Cl      0.0097  2.4035  0.2267
N       -1.5721  0.1097  -1.3069
N       -1.5524  -0.0885  1.2465
N       1.5550  0.1252  -1.2633
N       1.7709  -0.1036  1.4239
C       -2.7014  0.4114  -0.5741
C       -2.7016  -0.4193  0.6049
C       2.7112  0.3923  -0.5437
C       2.8586  -0.4440  0.6335
H       -0.8369  1.0626  -1.5623
H       -2.9905  1.4542  -0.3721
H       -3.5231  -0.0584  -1.1279
H       -3.5078  0.1101  1.1545
H       -3.0341  -1.4640  0.4400
H       -1.3881  0.7383  1.8302
H       -0.8008  -0.9364  1.6053
H       1.4567  -0.5984  -2.0143
H       0.8716  1.0954  -1.5149
H       3.5079  -0.0428  -1.1529
H       2.9946  1.4309  -0.3171
H       3.1856  -1.4887  0.4882
H       3.7508  0.1244  1.0686
H       1.1364  -0.9098  1.8672
H       1.6612  0.7564  1.9496
H       -1.4711  -0.6219  -2.0275
