27

Co      0.0376  0.0732  0.0050
Cl      0.0002  -2.3158  -0.2152
Cl      -0.0001  2.2148  0.2052
N       -1.3222  0.1881  -1.3441
N       -1.3222  -0.2033  1.3490
N       1.2608  0.1619  -1.1938
N       1.2607  -0.1768  1.1988
C       -2.7007  0.3099  -0.6907
C       -2.7010  -0.3092  0.6856
C       2.7008  0.3167  -0.6772
C       2.7010  -0.3156  0.6722
H       -1.4488  0.9326  -2.0815
H       -2.5561  1.3906  -0.5553
H       -3.7085  0.1236  -1.1214
H       -3.7017  -0.1326  1.1232
H       -2.5567  -1.3899  0.5402
H       -1.4335  0.5646  2.0188
H       -1.3937  -1.0342  1.9750
H       1.3170  -0.6953  -1.7002
H       1.3261  0.8789  -1.9576
H       3.6401  0.1357  -1.1898
H       2.5711  1.4031  -0.5299
H       2.5719  -1.4020  0.5147
H       3.6401  -0.1442  1.1849
H       1.2707  -0.9800  1.8513
H       1.3568  0.5995  1.8319
H       -1.4001  -0.6609  -1.8872
