27

Co      -0.1111  -0.0732  -0.0050
Cl      0.0101  -2.1802  -0.2028
Cl      0.0097  2.2812  0.2130
N       -1.4466  0.1004  -1.3114
N       -1.4466  -0.0854  1.3062
N       1.5473  0.1159  -1.3782
N       1.5473  -0.1005  1.3731
C       -2.8191  0.3977  -0.5770
C       -2.8193  -0.3970  0.5821
C       2.9025  0.4006  -0.5761
C       2.9027  -0.3995  0.5812
H       -0.9253  1.0273  -1.6686
H       -2.8574  1.4511  -0.3673
H       -3.7971  0.0663  -0.9815
H       -3.7971  -0.0551  0.9867
H       -2.8581  -1.4504  0.3825
H       -1.4228  0.7166  1.9172
H       -0.9813  -0.9268  1.7742
H       1.5964  -0.6165  -2.1012
H       1.1073  1.0306  -1.7758
H       3.9144  0.0672  -0.9434
H       2.9394  1.4541  -0.3639
H       2.9403  -1.4530  0.3791
H       3.9144  -0.0555  0.9486
H       1.1696  -0.9297  1.8815
H       1.5555  0.7126  1.9703
H       -1.4635  -0.6210  -2.0482
