27

Co      0.0000  -0.0640  -0.0633
Cl      0.0002  -2.2554  -0.2136
Cl      -0.0001  2.3504  0.2299
N       -1.5882  0.1201  -1.3101
N       -1.6863  -0.0989  1.3602
N       1.5882  0.1256  -1.3100
N       1.6863  -0.1041  1.3602
C       -2.8024  0.4925  -0.5754
C       -2.8762  -0.5225  0.6357
C       2.8024  0.4925  -0.5756
C       2.8762  -0.5221  0.6359
H       -0.9199  0.8639  -1.8191
H       -3.0134  1.5255  -0.2840
H       -3.5863  0.1369  -1.2383
H       -3.7035  -0.0705  1.2060
H       -3.1306  -1.5616  0.4035
H       -1.5656  0.9157  1.6279
H       -1.0311  -0.7082  2.0167
H       1.4957  -0.7805  -1.7641
H       0.9201  0.8692  -1.8137
H       3.5863  0.1309  -1.2384
H       3.0191  1.5199  -0.2903
H       3.1365  -1.5556  0.4097
H       3.6966  -0.0640  1.2129
H       1.0310  -0.7131  2.0115
H       1.5530  0.9164  1.6332
H       -1.5013  -0.7771  -1.7589
