27

Co      0.0000  0.0732  0.0050
Cl      0.0002  -2.3214  -0.2264
Cl      -0.0001  2.2204  0.2164
N       -1.3180  0.1191  -1.2633
N       -1.3180  -0.1344  1.2683
N       1.3180  0.1190  -1.2633
N       1.3180  -0.1339  1.2683
C       -2.6757  0.3973  -0.6477
C       -2.6759  -0.3966  0.6426
C       2.6757  0.3972  -0.6478
C       2.6759  -0.3961  0.6428
H       -1.4985  0.7841  -2.1075
H       -2.6361  1.4650  -0.4788
H       -3.4727  0.1994  -1.3497
H       -3.4659  -0.2084  1.3516
H       -2.6367  -1.4643  0.4636
H       -1.7536  0.6102  1.9394
H       -1.4433  -0.8856  2.0010
H       1.7202  -0.7067  -1.8073
H       1.4987  0.7838  -2.1077
H       3.4726  0.1990  -1.3499
H       2.6362  1.4651  -0.4794
H       2.6370  -1.4640  0.4643
H       3.4726  -0.2075  1.3450
H       1.4433  -0.8848  2.0014
H       1.7601  0.6109  1.9390
H       -1.7203  -0.7065  -1.8077
