27

Co      0.0376  -0.0092  0.0583
Cl      0.0002  -2.3288  -0.2158
Cl      -0.0001  2.3350  0.2097
N       -1.3883  0.1870  -1.3214
N       -1.4080  -0.1933  1.3765
N       1.4447  0.1608  -1.2816
N       1.2287  -0.1667  1.1159
C       -2.7257  0.3703  -0.6804
C       -2.7260  -0.3610  0.6546
C       2.7994  0.3992  -0.6963
C       2.6523  -0.3453  0.6117
H       -1.1999  0.9752  -1.9027
H       -2.8907  1.4337  -0.5520
H       -3.5159  -0.0290  -1.3099
H       -3.5380  -0.0104  1.2818
H       -2.8485  -1.4182  0.4992
H       -1.4437  0.6267  1.9655
H       -1.2924  -1.0015  1.9649
H       1.4590  -0.7014  -1.7782
H       1.2244  0.8920  -1.9335
H       3.5801  -0.0317  -1.3194
H       2.9793  1.4682  -0.5780
H       2.7900  -1.4082  0.4222
H       3.3371  -0.0367  1.4091
H       1.0221  -0.9768  1.6865
H       1.2130  0.6395  1.7123
H       -1.3949  -0.6479  -1.8989
