27

Co      0.0000  -0.0732  -0.0050
Cl      0.0002  -2.3055  -0.2134
Cl      -0.0001  2.4066  0.2236
N       -1.5680  0.1626  -1.3862
N       -1.4502  -0.1476  1.2706
N       1.4502  0.1626  -1.2757
N       1.5680  -0.1471  1.3811
C       -2.8544  0.4137  -0.6520
C       -2.7810  -0.3909  0.6275
C       2.7808  0.3915  -0.6226
C       2.8546  -0.4125  0.6572
H       -1.3798  0.9401  -1.9934
H       -2.9233  1.4684  -0.4555
H       -3.7060  0.1171  -1.2511
H       -3.5734  -0.1207  1.3152
H       -2.8503  -1.4455  0.4192
H       -1.4615  0.7357  1.7522
H       -1.2885  -0.8691  1.9443
H       1.5021  -0.6403  -1.8828
H       1.2327  0.9693  -1.8390
H       3.5734  0.1315  -1.3101
H       2.8498  1.4463  -0.4046
H       2.9242  -1.4673  0.4714
H       3.7059  -0.1051  1.2564
H       1.4357  -0.8389  2.0993
H       1.6085  0.7585  1.8182
H       -1.6494  -0.6622  -1.9495
