27

Co      0.0000  0.0092  -0.0583
Cl      0.0002  -2.3167  -0.2186
Cl      -0.0001  2.3106  0.2249
N       -1.6352  0.1231  -1.3684
N       -1.7334  -0.1171  1.4235
N       1.6352  0.1287  -1.3683
N       1.7333  -0.1223  1.4235
C       -2.7597  0.3918  -0.5261
C       -2.8336  -0.4218  0.5813
C       2.7598  0.3918  -0.5262
C       2.8336  -0.4213  0.5815
H       -1.4231  0.9059  -1.9571
H       -2.8694  1.4217  -0.1987
H       -3.5362  0.1800  -1.2577
H       -3.6534  -0.1237  1.2204
H       -2.9867  -1.4535  0.3030
H       -1.5887  0.8166  1.8281
H       -1.4787  -0.8513  2.0487
H       1.4784  -0.7773  -1.8330
H       1.4233  0.9113  -1.9517
H       3.5362  0.1740  -1.2579
H       2.8752  1.4119  -0.2049
H       2.9926  -1.4476  0.3092
H       3.6466  -0.1172  1.2274
H       1.4786  -0.8561  2.0434
H       1.5760  0.8173  1.8334
H       -1.4840  -0.7740  -1.8278
