27

Co      0.0376  -0.0092  0.0583
Cl      0.0002  -2.2808  -0.2077
Cl      -0.0001  2.2870  0.2017
N       -1.4244  0.1990  -1.3792
N       -1.4440  -0.2053  1.4343
N       1.4807  0.1728  -1.3393
N       1.2647  -0.1787  1.1737
C       -2.7788  0.3526  -0.7002
C       -2.7790  -0.3434  0.6744
C       2.8525  0.3815  -0.7161
C       2.7054  -0.3277  0.6315
H       -1.5906  0.9994  -2.0531
H       -2.8566  1.4291  -0.6209
H       -3.5865  0.0133  -1.3365
H       -3.6018  -0.0527  1.3152
H       -2.8143  -1.4137  0.5682
H       -1.8480  0.5065  2.1672
H       -1.6831  -1.0257  2.1153
H       1.8700  -0.5812  -1.9799
H       1.6152  0.9162  -2.0839
H       3.6507  0.0107  -1.3460
H       2.9452  1.4637  -0.6470
H       2.7558  -1.4037  0.4912
H       3.4077  -0.0790  1.4358
H       1.4129  -1.0009  1.8369
H       1.6241  0.5193  1.9140
H       -1.8059  -0.5278  -2.1006
