27

Co      -0.0376  -0.0732  -0.0050
Cl      0.0002  -2.2553  -0.2221
Cl      -0.0001  2.3564  0.2323
N       -1.5452  0.1112  -1.3290
N       -1.5452  -0.0961  1.3238
N       1.6066  0.1372  -1.4791
N       1.6066  -0.1217  1.4741
C       -2.6987  0.4063  -0.5715
C       -2.6989  -0.4056  0.5765
C       2.6987  0.3995  -0.5853
C       2.6989  -0.3984  0.5904
H       -1.3589  0.8595  -1.9748
H       -2.7097  1.4596  -0.3108
H       -3.6065  0.1961  -1.1177
H       -3.6064  -0.1849  1.1229
H       -2.7104  -1.4547  0.3260
H       -1.6117  0.8241  1.7223
H       -1.4149  -0.7591  2.0804
H       1.7355  -0.6947  -2.0395
H       1.4820  0.9127  -2.0991
H       3.6747  0.1833  -1.0495
H       2.6950  1.4430  -0.3375
H       2.6958  -1.4419  0.3527
H       3.6747  -0.1716  1.0547
H       1.5377  -0.8117  2.2049
H       1.6946  0.7907  1.9086
H       -1.6524  -0.7285  -1.8533
