27

Co      0.0000  -0.0732  -0.0050
Cl      0.0002  -2.2390  -0.2109
Cl      -0.0001  2.3400  0.2211
N       -1.4733  0.1550  -1.3489
N       -1.4732  -0.1399  1.3438
N       1.4733  0.1549  -1.3489
N       1.4732  -0.1394  1.3438
C       -2.7664  0.4052  -0.6372
C       -2.7666  -0.4045  0.6423
C       2.7664  0.4051  -0.6374
C       2.7666  -0.4040  0.6425
H       -1.2703  0.9446  -1.9366
H       -2.8173  1.4599  -0.4221
H       -3.6013  0.1450  -1.2652
H       -3.6013  -0.1338  1.2704
H       -2.8180  -1.4591  0.4372
H       -1.5069  0.7570  1.7982
H       -1.3263  -0.8442  2.0421
H       1.5476  -0.6616  -1.9288
H       1.2705  0.9443  -1.9368
H       3.6013  0.1446  -1.2653
H       2.8174  1.4599  -0.4227
H       2.8183  -1.4588  0.4379
H       3.6012  -0.1329  1.2705
H       1.3262  -0.8434  2.0425
H       1.5067  0.7577  1.7979
H       -1.5476  -0.6614  -1.9292
