27

Co      0.0000  -0.0732  -0.0050
Cl      0.0002  -2.2467  -0.2054
Cl      -0.0001  2.3478  0.2156
N       -1.5545  0.1680  -1.3230
N       -1.5545  -0.1530  1.3178
N       1.5545  0.1679  -1.3229
N       1.5545  -0.1525  1.3179
C       -2.8710  0.4026  -0.6372
C       -2.8713  -0.4019  0.6423
C       2.8711  0.4026  -0.6374
C       2.8712  -0.4015  0.6425
H       -1.3543  0.9629  -1.9081
H       -2.9506  1.4573  -0.4324
H       -3.6878  0.1165  -1.2859
H       -3.6878  -0.1053  1.2911
H       -2.9513  -1.4566  0.4476
H       -1.5805  0.7387  1.7800
H       -1.4102  -0.8624  2.0136
H       1.6211  -0.6434  -1.9106
H       1.3544  0.9626  -1.9083
H       3.6878  0.1161  -1.2860
H       2.9507  1.4573  -0.4331
H       2.9515  -1.4562  0.4483
H       3.6877  -0.1044  1.2912
H       1.4101  -0.8617  2.0140
H       1.5802  0.7394  1.7797
H       -1.6212  -0.6431  -1.9110
