27

Co      0.0376  0.0640  0.0633
Cl      0.0002  -2.3261  -0.2240
Cl      -0.0001  2.2313  0.2079
N       -1.3650  0.1416  -1.3102
N       -1.3846  -0.1630  1.3704
N       1.4213  0.1210  -1.2704
N       1.2053  -0.1420  1.1098
C       -2.8547  0.3817  -0.6989
C       -2.8549  -0.3725  0.6681
C       2.9284  0.4106  -0.7149
C       2.7813  -0.3568  0.6252
H       -1.6430  0.8289  -2.1509
H       -2.6230  1.4484  -0.4801
H       -3.6876  0.3630  -1.4386
H       -3.7030  -0.4125  1.4122
H       -2.5808  -1.4372  0.4122
H       -1.6660  0.5965  2.0333
H       -1.6799  -0.9562  2.1070
H       1.6420  -0.7671  -1.7203
H       1.6675  0.7513  -2.1760
H       3.7519  0.3547  -1.4481
H       2.7173  1.4815  -0.5118
H       2.5279  -1.4215  0.3408
H       3.5088  -0.4332  1.5328
H       1.4096  -0.9370  1.8230
H       1.4364  0.6093  1.7857
H       -1.5835  -0.7137  -1.8354
