27

Co      0.0000  -0.0732  -0.0050
Cl      0.0002  -2.2497  -0.2109
Cl      -0.0001  2.3508  0.2211
N       -1.5749  0.1596  -1.4301
N       -1.5749  -0.1445  1.4249
N       1.5749  0.1595  -1.4300
N       1.5749  -0.1441  1.4249
C       -2.6975  0.3703  -0.5793
C       -2.6977  -0.3696  0.5843
C       2.6976  0.3703  -0.5794
C       2.6977  -0.3692  0.5845
H       -1.3165  1.0174  -1.9112
H       -2.8956  1.4089  -0.3284
H       -3.4769  0.0398  -1.2473
H       -3.4836  -0.0286  1.2457
H       -2.8963  -1.4040  0.3436
H       -1.3784  0.7770  1.8593
H       -1.3724  -0.9169  2.0167
H       1.4122  -0.6817  -1.9898
H       1.3167  1.0171  -1.9114
H       3.4768  0.0394  -1.2474
H       2.8957  1.4047  -0.3290
H       2.8966  -1.4036  0.3442
H       3.4768  -0.0277  1.2526
H       1.3724  -0.9161  2.0171
H       1.3713  0.7777  1.8589
H       -1.4123  -0.6814  -1.9902
