27

Co      0.0376  -0.0092  0.0583
Cl      0.0002  -2.2034  -0.2052
Cl      -0.0001  2.2096  0.1991
N       -1.3140  0.1799  -1.3363
N       -1.3336  -0.1862  1.3915
N       1.3704  0.1538  -1.2965
N       1.1543  -0.1596  1.1308
C       -2.7896  0.3968  -0.7310
C       -2.7899  -0.3875  0.7052
C       2.8633  0.4257  -0.7469
C       2.7162  -0.3718  0.6623
H       -1.4272  0.9435  -2.0379
H       -2.8041  1.4691  -0.6187
H       -3.5369  0.1322  -1.4747
H       -3.5522  -0.1716  1.4534
H       -2.7619  -1.4578  0.5660
H       -1.7381  0.5510  2.0850
H       -1.5197  -0.9698  2.1001
H       1.7601  -0.6256  -1.8978
H       1.4518  0.8603  -2.0687
H       3.6011  0.1296  -1.4842
H       2.8927  1.5078  -0.6448
H       2.7034  -1.4478  0.4890
H       3.3581  -0.1979  1.5739
H       1.2495  -0.9451  1.8217
H       1.5142  0.5638  1.8319
H       -1.6960  -0.5722  -2.0185
