27

Co      0.0000  -0.0092  0.0583
Cl      0.0002  -2.2622  -0.2132
Cl      -0.0001  2.2684  0.2072
N       -1.3113  0.1716  -1.3244
N       -1.2131  -0.1779  1.2691
N       1.3113  0.1659  -1.3244
N       1.2131  -0.1718  1.2692
C       -2.7730  0.4185  -0.7534
C       -2.6996  -0.3872  0.6982
C       2.7731  0.4185  -0.7536
C       2.6996  -0.3867  0.6984
H       -1.1731  0.8823  -2.0220
H       -2.7652  1.4981  -0.6607
H       -3.6664  0.0999  -1.2776
H       -3.5492  -0.1540  1.3152
H       -2.6493  -1.4648  0.5564
H       -1.4655  0.6014  1.8996
H       -1.1183  -0.9381  1.9295
H       1.5763  -0.6419  -1.8933
H       1.1733  0.8764  -2.0279
H       3.6664  0.1052  -1.2778
H       2.7597  1.5079  -0.6557
H       2.6440  -1.4700  0.5514
H       3.5559  -0.1588  1.3086
H       1.1182  -0.9317  1.9355
H       1.4777  0.6021  1.8936
H       -1.5707  -0.6447  -1.8993
