27

Co      0.0736  0.0640  0.0633
Cl      -0.0096  -2.3793  -0.2208
Cl      -0.0099  2.2845  0.2047
N       -1.3078  0.1693  -1.2071
N       -1.3275  -0.1907  1.2673
N       1.3864  0.1685  -1.4008
N       1.1704  -0.1895  1.2402
C       -2.8291  0.4098  -0.7339
C       -2.8294  -0.4006  0.7031
C       2.8194  0.4221  -0.7782
C       2.6723  -0.3682  0.6885
H       -1.1925  0.8347  -1.9625
H       -2.8466  1.4894  -0.6379
H       -3.6631  0.0891  -1.3421
H       -3.6784  -0.1386  1.3158
H       -2.8043  -1.4781  0.5700
H       -1.6096  0.5690  1.9218
H       -1.2295  -0.9620  1.9186
H       1.6359  -0.6760  -1.9117
H       1.2811  0.8435  -2.1524
H       3.7465  0.0649  -1.2490
H       2.8166  1.5115  -0.7090
H       2.6273  -1.4515  0.5380
H       3.5035  -0.1434  1.3337
H       1.0232  -1.0292  1.7994
H       1.4303  0.5182  1.9771
H       -1.5271  -0.6861  -1.7239
