27

Co      -0.1111  0.0092  -0.0583
Cl      0.0101  -2.3089  -0.2241
Cl      0.0097  2.3028  0.2303
N       -1.5771  0.1096  -1.4161
N       -1.5574  -0.1036  1.3607
N       1.5600  0.1307  -1.3724
N       1.7759  -0.1243  1.5381
C       -2.6502  0.4112  -0.5559
C       -2.6504  -0.4191  0.5816
C       2.6600  0.3920  -0.5255
C       2.8074  -0.4437  0.6103
H       -1.1036  0.8566  -1.9764
H       -2.7124  1.4483  -0.2452
H       -3.6028  0.1608  -1.0282
H       -3.5875  -0.1192  1.0498
H       -2.7559  -1.4581  0.2979
H       -1.2659  0.8625  1.7192
H       -1.0120  -0.8314  1.9133
H       1.2885  -0.8185  -1.7775
H       1.1383  0.8950  -1.9167
H       3.5876  0.1774  -1.0532
H       2.7221  1.4194  -0.1959
H       2.9131  -1.4772  0.3517
H       3.8305  -0.1059  0.9638
H       1.3410  -0.8104  2.1630
H       1.5334  0.8806  1.8442
H       -1.3085  -0.8420  -1.7851
