27

Co      0.0376  0.0640  0.0633
Cl      0.0002  -2.3957  -0.2320
Cl      -0.0001  2.3009  0.2159
N       -1.4487  0.1416  -1.3994
N       -1.4684  -0.1630  1.4596
N       1.5051  0.1211  -1.3595
N       1.2891  -0.1421  1.1989
C       -2.7129  0.4060  -0.6620
C       -2.7132  -0.3968  0.6312
C       2.7866  0.4349  -0.6779
C       2.6395  -0.3811  0.5883
H       -1.2932  0.8466  -2.0842
H       -2.7644  1.4638  -0.4712
H       -3.5763  0.1193  -1.2448
H       -3.5984  -0.1687  1.2117
H       -2.7222  -1.4484  0.4033
H       -1.5708  0.6415  2.0602
H       -1.3301  -0.9739  2.0403
H       1.5401  -0.8121  -1.7472
H       1.3177  0.7691  -2.1093
H       3.6405  0.1110  -1.2544
H       2.8587  1.4928  -0.5029
H       2.6693  -1.4328  0.3319
H       3.3975  -0.1894  1.3390
H       1.0599  -0.9548  1.7563
H       1.3345  0.6543  1.8126
H       -1.4816  -0.7587  -1.8623
