27

Co      -0.0736  -0.0732  -0.0050
Cl      0.0101  -2.2446  -0.2221
Cl      0.0097  2.3456  0.2323
N       -1.5082  0.0970  -1.3972
N       -1.5082  -0.0820  1.3920
N       1.5475  0.0977  -1.3137
N       1.5474  -0.0822  1.3087
C       -2.6917  0.4084  -0.4827
C       -2.6919  -0.4077  0.4877
C       2.7751  0.4181  -0.4681
C       2.7753  -0.4170  0.4732
H       -1.2622  0.8954  -1.9581
H       -2.8735  1.4328  -0.1693
H       -3.4825  0.0813  -1.1385
H       -3.4892  -0.0701  1.1369
H       -2.8742  -1.4278  0.1845
H       -1.3972  0.8767  1.7624
H       -1.3181  -0.7949  2.0636
H       1.4695  -0.8108  -1.7711
H       1.3212  0.8565  -1.9233
H       3.5315  0.0900  -1.1687
H       2.9816  1.4327  -0.1510
H       2.9824  -1.4316  0.1662
H       3.5314  -0.0783  1.1739
H       1.3769  -0.7556  2.0290
H       1.4286  0.9069  1.6402
H       -1.4310  -0.7811  -1.8934
