27

Co      0.1111  0.0640  0.0633
Cl      -0.0096  -2.3183  -0.2295
Cl      -0.0099  2.2235  0.2133
N       -1.4002  0.1243  -1.2895
N       -1.4199  -0.1457  1.3497
N       1.4173  0.1087  -1.3330
N       1.2013  -0.1297  1.1724
C       -2.7106  0.4171  -0.6475
C       -2.7108  -0.4078  0.6166
C       2.7009  0.4362  -0.6781
C       2.5538  -0.3823  0.5885
H       -1.2437  0.7856  -2.0289
H       -2.7694  1.4749  -0.4441
H       -3.5301  0.1399  -1.2861
H       -3.5522  -0.1894  1.2530
H       -2.7272  -1.4594  0.3762
H       -1.5253  0.6880  1.9015
H       -1.2806  -0.9129  1.9851
H       1.4504  -0.8292  -1.7161
H       1.2094  0.7522  -2.0835
H       3.5453  0.1169  -1.2613
H       2.7656  1.4940  -0.5003
H       2.5762  -1.4340  0.3293
H       3.3023  -0.1954  1.3460
H       0.9515  -0.9379  1.7305
H       1.2448  0.6714  1.7815
H       -1.4360  -0.8052  -1.7037
