27

Co      0.0000  0.0000  0.0000
Cl      0.0002  -2.2709  -0.2214
Cl      -0.0001  2.2709  0.2215
N       -1.2707  0.1827  -1.3045
N       -1.2707  -0.1828  1.3044
N       1.2707  0.1826  -1.3044
N       1.2707  -0.1823  1.3044
C       -2.7434  0.4040  -0.6979
C       -2.7436  -0.4033  0.6979
C       2.7435  0.4039  -0.6980
C       2.7436  -0.4028  0.6981
H       -1.3773  0.7360  -2.2556
H       -2.5231  1.4748  -0.4746
H       -3.6970  0.3241  -1.2456
H       -3.6902  -0.3230  1.2525
H       -2.5238  -1.4783  0.4746
H       -1.3609  0.8063  1.6025
H       -1.3777  -0.7365  2.2551
H       1.3679  -0.8069  -1.6017
H       1.3775  0.7357  -2.2492
H       3.6970  0.3303  -1.2457
H       2.5232  1.4791  -0.4752
H       2.5241  -1.4780  0.4752
H       3.6969  -0.3288  1.2459
H       1.3710  -0.7357  2.2489
H       1.3674  0.8070  1.6021
H       -1.3680  -0.8067  -1.6021
