27

Co      0.0000  0.0000  0.0000
Cl      0.0002  -2.2229  -0.2133
Cl      -0.0001  2.2229  0.2134
N       -1.4018  0.2055  -1.3052
N       -1.5196  -0.2056  1.4156
N       1.5196  0.2055  -1.4156
N       1.4018  -0.2052  1.3052
C       -2.6568  0.3581  -0.6938
C       -2.7307  -0.3795  0.7233
C       2.7305  0.3802  -0.7234
C       2.6570  -0.3570  0.6940
H       -1.4022  0.8400  -2.1191
H       -2.5257  1.4214  -0.4264
H       -3.5200  0.3083  -1.3655
H       -3.6525  -0.2925  1.3067
H       -2.6000  -1.4428  0.4780
H       -1.3386  0.8208  1.6656
H       -1.5499  -0.8111  2.2733
H       1.3388  -0.8214  -1.6649
H       1.5496  0.8103  -2.2674
H       3.6525  0.2999  -1.3110
H       2.5952  1.4435  -0.4786
H       2.5224  -1.4203  0.4271
H       3.5199  -0.3130  1.3700
H       1.3959  -0.8398  2.1124
H       1.1910  0.7994  1.5990
H       -1.1915  -0.7991  -1.5990
