27

Co      0.0000  0.0000  0.0000
Cl      0.0002  -2.2709  -0.2214
Cl      -0.0001  2.2709  0.2215
N       -1.3830  0.1930  -1.2823
N       -1.3830  -0.1931  1.2822
N       1.3830  0.1929  -1.2823
N       1.3830  -0.1926  1.2823
C       -2.6474  0.3727  -0.7014
C       -2.6476  -0.3720  0.7014
C       2.6474  0.3727  -0.7015
C       2.6476  -0.3716  0.7016
H       -1.3847  0.7886  -2.1435
H       -2.5235  1.4360  -0.4424
H       -3.5059  0.3018  -1.3701
H       -3.5059  -0.3007  1.3703
H       -2.5242  -1.4353  0.4424
H       -1.1800  0.8393  1.5301
H       -1.3851  -0.7891  2.1430
H       1.1803  -0.8399  -1.5294
H       1.3849  0.7883  -2.1371
H       3.5059  0.3081  -1.3746
H       2.5194  1.4360  -0.4430
H       2.5202  -1.4349  0.4430
H       3.5058  -0.3065  1.3747
H       1.3784  -0.7883  2.1367
H       1.1798  0.8400  1.5298
H       -1.1803  -0.8397  -1.5298
