27

Co      0.0000  0.0000  0.0000
Cl      0.0002  -2.2307  -0.2079
Cl      -0.0001  2.2307  0.2080
N       -1.5187  0.1527  -1.3384
N       -1.5187  -0.1528  1.3383
N       1.5187  0.1527  -1.3383
N       1.5186  -0.1524  1.3383
C       -2.8198  0.4052  -0.6398
C       -2.8200  -0.4045  0.6397
C       2.8199  0.4051  -0.6399
C       2.8200  -0.4040  0.6400
H       -1.3462  0.9021  -1.9816
H       -2.8815  1.4599  -0.4323
H       -3.6494  0.1319  -1.2730
H       -3.6494  -0.1308  1.2732
H       -2.8821  -1.4591  0.4323
H       -1.5725  0.7010  1.8585
H       -1.3466  -0.9027  1.9811
H       1.5728  -0.7016  -1.8578
H       1.3464  0.9018  -1.9818
H       3.6494  0.1315  -1.2732
H       2.8816  1.4599  -0.4330
H       2.8824  -1.4588  0.4330
H       3.6493  -0.1300  1.2733
H       1.3465  -0.9019  1.9815
H       1.5723  0.7017  1.8582
H       -1.5728  -0.7013  -1.8582
