27

Co      0.0168  0.0134  0.0314
Cl      -1.0936  1.6276  -1.2244
Cl      1.1301  1.4020  1.3286
C       2.6211  -0.7076  -0.7967
C       2.1049  -1.8939  -0.0949
C       -2.5122  -1.2976  -0.4573
C       -2.3765  -1.1428  1.0374
N       1.4846  0.0632  -1.3104
N       1.0751  -1.4980  0.8331
N       -1.1349  -1.3697  -1.0271
N       -1.4406  -0.0329  1.3326
H       2.9066  -2.4223  0.3916
H       1.6678  -2.5725  -0.8152
H       -2.9955  -0.4398  -0.8840
H       -3.0877  -2.1754  -0.7074
H       1.7254  1.0282  -1.4484
H       1.1847  -0.2814  -2.2034
H       -1.8931  0.8601  1.2561
H       -1.0944  -0.0846  2.2680
H       -1.9738  -2.0436  1.4810
H       -3.3404  -0.9676  1.4880
H       0.5315  -2.2989  1.0935
H       1.4841  -1.1349  1.6763
H       3.2494  -1.0518  -1.6036
H       3.2109  -0.0761  -0.1557
H       -0.7978  -2.3092  -0.9890
H       -1.1624  -1.0931  -1.9893
