27

Co      0.0232  -0.0034  0.0122
Cl      -1.1014  1.6280  -1.2242
Cl      1.1364  1.4095  1.3359
C       2.6190  -0.7154  -0.8233
C       2.1061  -1.8750  -0.1050
C       -2.5023  -1.2716  -0.4272
C       -2.3988  -1.1473  1.0539
N       1.5302  0.0723  -1.3173
N       1.0870  -1.5132  0.8762
N       -1.1361  -1.3459  -1.0341
N       -1.5072  -0.0365  1.3534
H       2.9530  -2.3380  0.3770
H       1.6790  -2.6065  -0.7753
H       -3.0079  -0.4314  -0.8615
H       -3.0598  -2.1645  -0.6618
H       1.7832  1.0407  -1.3815
H       1.2413  -0.2043  -2.2342
H       -1.9639  0.8468  1.2100
H       -1.1942  -0.0408  2.3041
H       -1.9750  -2.0495  1.4741
H       -3.3803  -1.0199  1.4869
H       0.5833  -2.3399  1.1421
H       1.5015  -1.1362  1.7088
H       3.2789  -1.0555  -1.6075
H       3.1950  -0.1063  -0.1516
H       -0.8203  -2.2952  -1.0545
H       -1.1993  -1.0275  -1.9826
