27

Co      -0.0094  -0.0154  0.0066
Cl      -1.1035  1.6334  -1.2302
Cl      1.1736  1.4650  1.3747
C       2.6798  -0.7242  -0.8234
C       2.1515  -1.9336  -0.1021
C       -2.5624  -1.3273  -0.4373
C       -2.4302  -1.1538  1.0502
N       1.5327  0.0769  -1.3305
N       1.1025  -1.5200  0.8829
N       -1.1795  -1.3113  -1.0227
N       -1.4661  -0.0585  1.3105
H       2.9045  -2.4557  0.4691
H       1.7380  -2.6363  -0.8144
H       -3.1543  -0.5212  -0.8415
H       -3.0084  -2.2667  -0.7431
H       1.7274  1.0651  -1.3164
H       1.1729  -0.1493  -2.2395
H       -1.8664  0.8568  1.1991
H       -1.0679  -0.0866  2.2294
H       -2.0697  -2.0726  1.4890
H       -3.3680  -0.9083  1.5257
H       0.5651  -2.3101  1.1768
H       1.4575  -1.0358  1.6936
H       3.2718  -0.9749  -1.6950
H       3.2940  -0.1386  -0.1572
H       -0.7511  -2.2189  -1.0474
H       -1.2014  -0.9356  -1.9522
