27

Co      0.0011  0.0178  0.0082
Cl      -1.0876  1.6172  -1.2256
Cl      1.1341  1.4013  1.3364
C       2.6672  -0.6974  -0.8139
C       2.1199  -1.9389  -0.1031
C       -2.4971  -1.3170  -0.4509
C       -2.4335  -1.1470  1.0686
N       1.4872  0.0550  -1.3215
N       1.0633  -1.4752  0.8492
N       -1.0996  -1.2845  -1.0027
N       -1.4604  -0.0592  1.3659
H       2.9411  -2.4899  0.3357
H       1.6152  -2.5948  -0.7990
H       -2.9897  -0.4864  -0.9313
H       -3.0454  -2.2209  -0.6652
H       1.7417  1.0166  -1.4938
H       1.3006  -0.3178  -2.2427
H       -1.9377  0.8282  1.3313
H       -1.1361  -0.1366  2.3130
H       -2.0638  -2.0363  1.5662
H       -3.4281  -0.9570  1.4473
H       0.5695  -2.2717  1.2082
H       1.5757  -1.1163  1.6406
H       3.3990  -1.0184  -1.5479
H       3.1471  -0.0250  -0.1212
H       -0.7811  -2.2334  -1.0201
H       -1.1787  -1.0025  -1.9615
