27

Co      -0.0331  -0.0052  -0.0132
Cl      -1.0898  1.6238  -1.2145
Cl      1.1942  1.4974  1.4053
C       2.6784  -0.7187  -0.8174
C       2.1509  -1.9506  -0.1087
C       -2.5497  -1.3145  -0.4514
C       -2.4149  -1.1651  1.0491
N       1.5100  0.0549  -1.3340
N       1.0754  -1.5302  0.8498
N       -1.1567  -1.3401  -1.0012
N       -1.4588  -0.0574  1.3081
H       2.9442  -2.4702  0.4116
H       1.7181  -2.6423  -0.8159
H       -3.0583  -0.4698  -0.8848
H       -3.0829  -2.2127  -0.7224
H       1.7348  1.0335  -1.3960
H       1.2562  -0.2315  -2.2572
H       -1.9119  0.8362  1.2408
H       -1.0784  -0.1002  2.2349
H       -2.0120  -2.0668  1.4875
H       -3.3662  -0.9747  1.5165
H       0.5758  -2.3338  1.1758
H       1.4955  -1.1003  1.6543
H       3.3504  -0.9923  -1.6137
H       3.2107  -0.0817  -0.1306
H       -0.7834  -2.2716  -0.9405
H       -1.1819  -1.0896  -1.9727
