27

Co      -0.0232  0.0009  -0.0138
Cl      -1.0712  1.5862  -1.1971
Cl      1.1710  1.4566  1.3768
C       2.6943  -0.7005  -0.8321
C       2.1486  -1.9699  -0.1146
C       -2.5374  -1.3093  -0.4511
C       -2.4146  -1.1513  1.0575
N       1.4778  0.0595  -1.2955
N       1.0442  -1.4600  0.8471
N       -1.1383  -1.2983  -1.0101
N       -1.4496  -0.0515  1.3120
H       2.9054  -2.4898  0.4555
H       1.7009  -2.6736  -0.8023
H       -3.0721  -0.4840  -0.8899
H       -3.0384  -2.2267  -0.7154
H       1.6784  1.0425  -1.3645
H       1.1939  -0.2292  -2.2117
H       -1.8975  0.8448  1.2191
H       -1.0851  -0.0731  2.2442
H       -2.0204  -2.0556  1.4987
H       -3.3648  -0.9499  1.5229
H       0.5258  -2.2290  1.2271
H       1.4926  -1.0005  1.6201
H       3.3780  -0.8920  -1.6499
H       3.1936  -0.0726  -0.1091
H       -0.7642  -2.2275  -1.0012
H       -1.1802  -0.9971  -1.9645
