27

Co      -0.0249  0.0059  -0.0144
Cl      -1.0867  1.6049  -1.2053
Cl      1.1896  1.4830  1.3940
C       2.7005  -0.7365  -0.8209
C       2.1741  -1.9612  -0.1110
C       -2.5680  -1.3112  -0.4441
C       -2.4329  -1.1797  1.0558
N       1.5122  0.0425  -1.2865
N       1.0864  -1.4794  0.8030
N       -1.1706  -1.3135  -0.9891
N       -1.4883  -0.0585  1.2998
H       2.9481  -2.4623  0.4582
H       1.7591  -2.6763  -0.8061
H       -3.0845  -0.4659  -0.8646
H       -3.0865  -2.2125  -0.7326
H       1.7467  1.0198  -1.3526
H       1.2414  -0.2355  -2.2070
H       -1.9519  0.8263  1.1951
H       -1.1288  -0.0678  2.2360
H       -2.0169  -2.0790  1.4893
H       -3.3835  -0.9984  1.5298
H       0.5732  -2.2604  1.1641
H       1.5118  -1.0226  1.5903
H       3.3449  -0.9908  -1.6462
H       3.2546  -0.1113  -0.1382
H       -0.7926  -2.2437  -0.9401
H       -1.2038  -1.0543  -1.9587
