27

Co      0.0032  0.0210  -0.0004
Cl      -1.0818  1.6107  -1.2149
Cl      1.1521  1.4340  1.3578
C       2.6426  -0.6989  -0.8176
C       2.1284  -1.9475  -0.0937
C       -2.5207  -1.3206  -0.4595
C       -2.4116  -1.1460  1.0550
N       1.4601  0.0671  -1.3007
N       1.0530  -1.5056  0.8491
N       -1.1286  -1.3334  -1.0194
N       -1.4362  -0.0550  1.3350
H       2.9699  -2.4598  0.3559
H       1.6520  -2.6334  -0.7782
H       -2.9969  -0.4802  -0.9404
H       -3.1011  -2.2126  -0.6547
H       1.7250  1.0283  -1.4605
H       1.2617  -0.2867  -2.2232
H       -1.9178  0.8304  1.3081
H       -1.1031  -0.1322  2.2778
H       -2.0230  -2.0339  1.5355
H       -3.3914  -0.9619  1.4678
H       0.5510  -2.3079  1.1801
H       1.5486  -1.1638  1.6588
H       3.3560  -1.0123  -1.5679
H       3.1379  -0.0265  -0.1348
H       -0.8230  -2.2873  -1.0004
H       -1.2010  -1.0891  -1.9922
