27

Co      -0.0320  0.0066  -0.0020
Cl      -1.0980  1.6231  -1.2216
Cl      1.1772  1.4594  1.3781
C       2.7075  -0.7288  -0.8199
C       2.1637  -1.9530  -0.1115
C       -2.5583  -1.3194  -0.4450
C       -2.4349  -1.1690  1.0557
N       1.5409  0.0539  -1.3291
N       1.1165  -1.5086  0.8639
N       -1.1650  -1.2980  -1.0004
N       -1.4847  -0.0563  1.3190
H       2.9498  -2.4995  0.3915
H       1.7008  -2.6264  -0.8180
H       -3.0964  -0.4912  -0.8769
H       -3.0580  -2.2355  -0.7184
H       1.7723  1.0312  -1.3884
H       1.2878  -0.2289  -2.2536
H       -1.9421  0.8355  1.2458
H       -1.1115  -0.0972  2.2493
H       -2.0314  -2.0696  1.4995
H       -3.3918  -0.9809  1.5153
H       0.6303  -2.3064  1.2282
H       1.5593  -1.0519  1.6421
H       3.3732  -1.0104  -1.6213
H       3.2524  -0.1014  -0.1347
H       -0.7792  -2.2250  -0.9803
H       -1.2018  -1.0062  -1.9572
