27

Co      -0.0193  -0.0325  -0.0254
Cl      -1.0911  1.6229  -1.2181
Cl      1.1706  1.4605  1.3781
C       2.6495  -0.7109  -0.8020
C       2.1360  -1.9409  -0.1075
C       -2.5010  -1.2884  -0.4279
C       -2.4188  -1.1534  1.0699
N       1.4950  0.0737  -1.3171
N       1.0939  -1.5099  0.8719
N       -1.1172  -1.2924  -1.0138
N       -1.4878  -0.0399  1.3473
H       2.8910  -2.4563  0.4660
H       1.7274  -2.6421  -0.8222
H       -3.0564  -0.4498  -0.8100
H       -2.9710  -2.1982  -0.7780
H       1.6793  1.0647  -1.2925
H       1.1547  -0.1479  -2.2355
H       -1.8952  0.8696  1.2143
H       -1.0862  -0.0460  2.2655
H       -2.0521  -2.0670  1.5120
H       -3.3789  -0.9367  1.5087
H       0.5715  -2.2878  1.2171
H       1.4562  -0.9802  1.6547
H       3.2646  -0.9187  -1.6664
H       3.2258  -0.1238  -0.1096
H       -0.6891  -2.2003  -1.0151
H       -1.1476  -0.9417  -1.9517
