27

Co      0.0332  0.0005  -0.0007
Cl      -1.0955  1.6191  -1.2207
Cl      1.1535  1.4364  1.3591
C       2.6584  -0.7046  -0.8339
C       2.1287  -1.9358  -0.0884
C       -2.5244  -1.3127  -0.4454
C       -2.4366  -1.1598  1.0772
N       1.4834  0.0801  -1.3030
N       1.0529  -1.4802  0.8485
N       -1.1461  -1.3457  -1.0560
N       -1.5032  -0.0366  1.3728
H       2.9618  -2.4493  0.3701
H       1.6437  -2.6227  -0.7656
H       -2.9822  -0.4487  -0.9009
H       -3.1364  -2.1821  -0.6555
H       1.7501  1.0427  -1.4417
H       1.2799  -0.2530  -2.2304
H       -1.9927  0.8363  1.2728
H       -1.2128  -0.0650  2.3356
H       -2.0309  -2.0360  1.5634
H       -3.4376  -1.0111  1.4600
H       0.5290  -2.2755  1.1642
H       1.5413  -1.1456  1.6649
H       3.3505  -1.0427  -1.5923
H       3.1811  -0.0368  -0.1680
H       -0.8731  -2.3134  -1.1218
H       -1.2504  -1.0308  -2.0061
