27

Co      -0.0260  -0.0355  -0.0153
Cl      -1.0854  1.6033  -1.2054
Cl      1.1838  1.4751  1.3893
C       2.6805  -0.7166  -0.8275
C       2.1424  -1.9324  -0.1007
C       -2.5325  -1.3018  -0.4405
C       -2.4139  -1.1519  1.0653
N       1.5114  0.0761  -1.3049
N       1.0822  -1.4716  0.8509
N       -1.1564  -1.3005  -1.0442
N       -1.4853  -0.0270  1.3268
H       2.9237  -2.4566  0.4286
H       1.6901  -2.6265  -0.7935
H       -3.0634  -0.4648  -0.8591
H       -3.0563  -2.2063  -0.7069
H       1.7308  1.0595  -1.3140
H       1.2612  -0.1638  -2.2446
H       -1.9367  0.8628  1.2039
H       -1.1315  -0.0290  2.2646
H       -2.0031  -2.0421  1.5179
H       -3.3807  -0.9770  1.5073
H       0.5921  -2.2600  1.2275
H       1.5159  -0.9942  1.6234
H       3.3181  -1.0024  -1.6480
H       3.2489  -0.0934  -0.1582
H       -0.7980  -2.2373  -1.0923
H       -1.2221  -0.9508  -1.9825
