27

Co      0.0043  0.0252  0.0124
Cl      -1.0789  1.5900  -1.2105
Cl      1.1229  1.3801  1.3154
C       2.6547  -0.7037  -0.8339
C       2.1332  -1.9347  -0.0814
C       -2.5137  -1.3132  -0.4542
C       -2.4097  -1.1361  1.0606
N       1.4820  0.0929  -1.2875
N       1.0755  -1.4819  0.8712
N       -1.1279  -1.2832  -1.0334
N       -1.4498  -0.0344  1.3444
H       2.9758  -2.4503  0.3582
H       1.6371  -2.6238  -0.7515
H       -3.0224  -0.4917  -0.9316
H       -3.0641  -2.2236  -0.6429
H       1.7559  1.0543  -1.4058
H       1.2823  -0.2212  -2.2227
H       -1.9362  0.8477  1.3020
H       -1.1271  -0.1005  2.2900
H       -2.0097  -2.0188  1.5444
H       -3.3957  -0.9637  1.4692
H       0.5857  -2.2835  1.2250
H       1.5828  -1.1196  1.6645
H       3.3318  -1.0485  -1.6061
H       3.1963  -0.0457  -0.1763
H       -0.8158  -2.2333  -1.0739
H       -1.2173  -0.9779  -1.9854
