27

Co      0.0126  0.0345  -0.0041
Cl      -1.0798  1.5930  -1.2070
Cl      1.1486  1.4209  1.3489
C       2.6624  -0.7177  -0.8135
C       2.1469  -1.9511  -0.1026
C       -2.5317  -1.3127  -0.4443
C       -2.4297  -1.1593  1.0620
N       1.4825  0.0587  -1.2841
N       1.0802  -1.4777  0.8300
N       -1.1495  -1.3343  -1.0342
N       -1.4897  -0.0463  1.3595
H       2.9323  -2.4556  0.4375
H       1.7147  -2.6564  -0.7967
H       -3.0436  -0.4689  -0.8711
H       -3.0716  -2.2071  -0.7074
H       1.7244  1.0266  -1.4071
H       1.1754  -0.2640  -2.1826
H       -1.9457  0.8450  1.2823
H       -1.1352  -0.0966  2.2945
H       -2.0437  -2.0594  1.5187
H       -3.4040  -0.9741  1.4870
H       0.5306  -2.2512  1.1517
H       1.5072  -1.0634  1.6366
H       3.3123  -0.9687  -1.6364
H       3.2113  -0.0932  -0.1281
H       -0.7910  -2.2679  -1.0326
H       -1.2115  -1.0338  -1.9888
