27

Co      0.0232  0.0037  0.0107
Cl      -1.1011  1.6408  -1.2354
Cl      1.1404  1.4220  1.3457
C       2.6146  -0.7096  -0.8242
C       2.1031  -1.8864  -0.1018
C       -2.4897  -1.2970  -0.4342
C       -2.4203  -1.1413  1.0597
N       1.5102  0.0581  -1.3193
N       1.0590  -1.5203  0.8552
N       -1.1147  -1.3402  -1.0215
N       -1.4825  -0.0634  1.3677
H       2.9925  -2.3438  0.3257
H       1.6510  -2.6100  -0.7607
H       -2.9695  -0.4689  -0.9285
H       -3.0749  -2.1946  -0.6038
H       1.7948  1.0145  -1.4618
H       1.3137  -0.2781  -2.2471
H       -1.9578  0.8183  1.2945
H       -1.1907  -0.1220  2.3270
H       -2.0325  -2.0340  1.5310
H       -3.4234  -0.9920  1.4357
H       0.5763  -2.3606  1.1264
H       1.5367  -1.2205  1.6956
H       3.3407  -1.0916  -1.5398
H       3.1291  -0.0530  -0.1466
H       -0.8429  -2.3065  -1.0476
H       -1.2096  -1.0642  -1.9832
