27

Co      0.0000  -0.0046  0.0002
Cl      -1.0729  1.5950  -1.2056
Cl      1.1421  1.4234  1.3468
C       2.6362  -0.6926  -0.8355
C       2.1140  -1.9228  -0.0808
C       -2.4925  -1.2998  -0.4553
C       -2.3960  -1.1354  1.0624
N       1.4638  0.0918  -1.3062
N       1.0218  -1.4887  0.8476
N       -1.1048  -1.3094  -1.0257
N       -1.4387  -0.0334  1.3430
H       2.9522  -2.4189  0.3858
H       1.6470  -2.6260  -0.7547
H       -2.9673  -0.4566  -0.9279
H       -3.0732  -2.1891  -0.6586
H       1.7215  1.0576  -1.4124
H       1.2761  -0.2185  -2.2464
H       -1.9198  0.8484  1.2822
H       -1.1194  -0.0823  2.2905
H       -1.9966  -2.0171  1.5451
H       -3.3828  -0.9660  1.4662
H       0.5206  -2.2961  1.1662
H       1.5030  -1.1480  1.6661
H       3.3216  -1.0410  -1.5963
H       3.1641  -0.0229  -0.1785
H       -0.8062  -2.2651  -1.0425
H       -1.1836  -1.0296  -1.9871
