27

Co      0.0364  0.0185  0.0004
Cl      -1.0934  1.6148  -1.2186
Cl      1.1514  1.4311  1.3548
C       2.6455  -0.7079  -0.8183
C       2.1327  -1.9407  -0.0953
C       -2.5370  -1.3166  -0.4439
C       -2.4280  -1.1566  1.0642
N       1.4798  0.0777  -1.3006
N       1.0769  -1.4995  0.8648
N       -1.1654  -1.3706  -1.0668
N       -1.4952  -0.0387  1.3679
H       2.9322  -2.4514  0.4149
H       1.6851  -2.6364  -0.7898
H       -3.0354  -0.4624  -0.8672
H       -3.1069  -2.1982  -0.6937
H       1.7197  1.0461  -1.4155
H       1.1684  -0.2401  -2.1989
H       -1.9472  0.8522  1.2694
H       -1.1557  -0.0793  2.3095
H       -2.0405  -2.0531  1.5235
H       -3.4067  -0.9777  1.4824
H       0.5169  -2.2812  1.1501
H       1.4981  -1.1135  1.6891
H       3.2947  -0.9777  -1.6352
H       3.2011  -0.0808  -0.1412
H       -0.8347  -2.3146  -1.1043
H       -1.2392  -1.0376  -2.0107
