27

Co      -0.0265  -0.0143  -0.0229
Cl      -1.0774  1.5980  -1.2069
Cl      1.1800  1.4767  1.3914
C       2.6730  -0.7134  -0.8169
C       2.1356  -1.9396  -0.1033
C       -2.5348  -1.3200  -0.4365
C       -2.4493  -1.1627  1.0655
N       1.5088  0.0609  -1.3374
N       1.0619  -1.4923  0.8397
N       -1.1285  -1.2438  -0.9639
N       -1.4627  -0.0785  1.3059
H       2.9196  -2.4558  0.4321
H       1.7030  -2.6379  -0.8041
H       -3.0955  -0.5114  -0.8770
H       -2.9876  -2.2577  -0.7303
H       1.7304  1.0411  -1.3772
H       1.2697  -0.2100  -2.2708
H       -1.8992  0.8232  1.2236
H       -1.0878  -0.1103  2.2341
H       -2.0935  -2.0686  1.5376
H       -3.4078  -0.9228  1.4989
H       0.5648  -2.2848  1.1963
H       1.4871  -1.0341  1.6269
H       3.3456  -0.9923  -1.6122
H       3.2051  -0.0794  -0.1303
H       -0.7235  -2.1617  -0.9547
H       -1.1711  -0.9455  -1.9194
