27

Co      -0.0219  0.0029  -0.0131
Cl      -1.0811  1.5941  -1.2066
Cl      1.1822  1.4704  1.3861
C       2.7277  -0.7150  -0.8328
C       2.1759  -1.9940  -0.0889
C       -2.5648  -1.3436  -0.4575
C       -2.4485  -1.1678  1.0734
N       1.4941  0.0841  -1.3179
N       1.0752  -1.4779  0.8510
N       -1.1705  -1.2988  -1.0394
N       -1.4752  -0.0369  1.3414
H       2.9112  -2.5721  0.4592
H       1.7020  -2.6489  -0.8090
H       -3.0943  -0.4986  -0.8701
H       -3.0772  -2.2457  -0.7542
H       1.7054  1.0659  -1.3742
H       1.2291  -0.1966  -2.2416
H       -1.9273  0.8588  1.2793
H       -1.0892  -0.0858  2.2674
H       -2.0705  -2.0563  1.5584
H       -3.4096  -0.9428  1.5092
H       0.5336  -2.2359  1.2223
H       1.5104  -1.0133  1.6296
H       3.3547  -0.9612  -1.6774
H       3.2847  -0.0723  -0.1680
H       -0.7769  -2.2223  -1.0722
H       -1.2244  -0.9568  -1.9803
