27

Co      0.0071  0.0308  0.0013
Cl      -1.0655  1.5755  -1.2000
Cl      1.1313  1.3969  1.3342
C       2.5983  -0.7006  -0.8187
C       2.0882  -1.8789  -0.0979
C       -2.4851  -1.3045  -0.4412
C       -2.4022  -1.1179  1.0506
N       1.4982  0.0706  -1.3159
N       1.0687  -1.5019  0.8731
N       -1.1245  -1.3180  -1.0576
N       -1.4593  -0.0482  1.3697
H       2.9829  -2.3457  0.3112
H       1.6177  -2.5956  -0.7519
H       -3.0052  -0.5061  -0.9472
H       -3.0470  -2.2251  -0.5721
H       1.7917  1.0235  -1.4660
H       1.3001  -0.2729  -2.2416
H       -1.9339  0.8404  1.3512
H       -1.1373  -0.1496  2.3127
H       -2.0179  -2.0095  1.5273
H       -3.4049  -0.9630  1.4283
H       0.6013  -2.3364  1.1798
H       1.5624  -1.1731  1.6889
H       3.3280  -1.0785  -1.5348
H       3.1104  -0.0471  -0.1364
H       -0.8382  -2.2771  -1.1049
H       -1.2391  -1.0208  -2.0111
