27

Co      0.0000  -0.0026  -0.0001
Cl      -1.0797  1.6052  -1.2073
Cl      1.1472  1.4268  1.3537
C       2.6151  -0.7047  -0.7903
C       2.0985  -1.8962  -0.0963
C       -2.4967  -1.2867  -0.4473
C       -2.3892  -1.1491  1.0518
N       1.4835  0.0658  -1.3244
N       1.0734  -1.4956  0.8330
N       -1.1171  -1.3307  -1.0145
N       -1.4621  -0.0319  1.3393
H       2.9032  -2.4231  0.3898
H       1.6620  -2.5740  -0.8160
H       -2.9856  -0.4261  -0.8636
H       -3.0552  -2.1651  -0.7259
H       1.7215  1.0349  -1.4269
H       1.2169  -0.2552  -2.2348
H       -1.9166  0.8588  1.2519
H       -1.1050  -0.0684  2.2714
H       -1.9883  -2.0461  1.5031
H       -3.3624  -0.9773  1.4839
H       0.5537  -2.2943  1.1353
H       1.4853  -1.0877  1.6516
H       3.2610  -1.0394  -1.5849
H       3.1843  -0.0701  -0.1366
H       -0.7641  -2.2658  -0.9786
H       -1.1556  -1.0563  -1.9778
