27

Co      0.0032  0.0104  0.0028
Cl      -1.0753  1.5877  -1.2020
Cl      1.1430  1.4181  1.3411
C       2.6407  -0.7041  -0.8418
C       2.1353  -1.9338  -0.0742
C       -2.5247  -1.3083  -0.4576
C       -2.3942  -1.1383  1.0555
N       1.4676  0.1029  -1.2805
N       1.0525  -1.4975  0.8617
N       -1.1421  -1.3163  -1.0417
N       -1.4404  -0.0280  1.3230
H       2.9866  -2.4181  0.3859
H       1.6664  -2.6488  -0.7360
H       -3.0127  -0.4718  -0.9290
H       -3.1040  -2.2037  -0.6440
H       1.7423  1.0671  -1.3715
H       1.2687  -0.1847  -2.2233
H       -1.9300  0.8499  1.2640
H       -1.1195  -0.0749  2.2697
H       -1.9753  -2.0175  1.5264
H       -3.3716  -0.9771  1.4855
H       0.5567  -2.3049  1.1905
H       1.5399  -1.1471  1.6722
H       3.3014  -1.0529  -1.6239
H       3.1966  -0.0441  -0.1962
H       -0.8440  -2.2724  -1.0626
H       -1.2259  -1.0328  -2.0024
