27

Co      0.0247  0.0005  0.0054
Cl      -1.0955  1.6191  -1.2207
Cl      1.1535  1.4376  1.3591
C       2.6610  -0.7045  -0.8286
C       2.1215  -1.9227  -0.0950
C       -2.5329  -1.3105  -0.4422
C       -2.4295  -1.1598  1.0654
N       1.5094  0.0829  -1.3422
N       1.0618  -1.5029  0.8747
N       -1.1531  -1.3439  -1.0413
N       -1.4954  -0.0414  1.3580
H       2.9142  -2.4505  0.4077
H       1.6656  -2.6069  -0.7963
H       -3.0367  -0.4596  -0.8653
H       -3.0838  -2.1987  -0.7078
H       1.7387  1.0557  -1.4290
H       1.2228  -0.2215  -2.2518
H       -1.9463  0.8485  1.2449
H       -1.1592  -0.0667  2.3013
H       -2.0371  -2.0566  1.5216
H       -3.4049  -0.9813  1.4903
H       0.5149  -2.2979  1.1486
H       1.4774  -1.1225  1.7052
H       3.3171  -1.0101  -1.6282
H       3.2179  -0.0716  -0.1597
H       -0.8136  -2.2853  -1.0788
H       -1.2122  -1.0059  -1.9837
