27

Co      -0.0341  -0.0170  -0.0002
Cl      -1.0877  1.6196  -1.2168
Cl      1.1673  1.4542  1.3693
C       2.6614  -0.7129  -0.8054
C       2.1399  -1.9360  -0.1106
C       -2.5306  -1.3035  -0.4453
C       -2.3927  -1.1431  1.0410
N       1.4996  0.0642  -1.3126
N       1.0910  -1.5069  0.8644
N       -1.1392  -1.2997  -0.9973
N       -1.4299  -0.0505  1.2933
H       2.8862  -2.4600  0.4685
H       1.7329  -2.6366  -0.8297
H       -3.1074  -0.4890  -0.8485
H       -2.9798  -2.2359  -0.7627
H       1.6813  1.0544  -1.3085
H       1.1468  -0.1743  -2.2211
H       -1.8338  0.8657  1.1959
H       -1.0151  -0.0782  2.2038
H       -2.0195  -2.0650  1.4647
H       -3.3226  -0.9058  1.5352
H       0.5721  -2.2907  1.1997
H       1.4566  -0.9937  1.6544
H       3.2691  -0.9291  -1.6748
H       3.2474  -0.1256  -0.1197
H       -0.7001  -2.2023  -0.9558
H       -1.1376  -0.9788  -1.9449
