27

Co      0.0126  0.0269  -0.0024
Cl      -1.0688  1.5730  -1.1955
Cl      1.1365  1.4049  1.3337
C       2.6477  -0.7102  -0.8385
C       2.1411  -1.9405  -0.0784
C       -2.5162  -1.3049  -0.4521
C       -2.4101  -1.1456  1.0655
N       1.4645  0.0901  -1.2645
N       1.0503  -1.4710  0.8312
N       -1.1360  -1.3171  -1.0467
N       -1.4706  -0.0268  1.3534
H       2.9802  -2.4168  0.4078
H       1.6832  -2.6627  -0.7384
H       -2.9945  -0.4591  -0.9156
H       -3.1049  -2.1907  -0.6498
H       1.7450  1.0503  -1.3872
H       1.2506  -0.2192  -2.1970
H       -1.9657  0.8471  1.2893
H       -1.1579  -0.0747  2.3037
H       -1.9951  -2.0234  1.5428
H       -3.4009  -0.9948  1.4715
H       0.5335  -2.2632  1.1645
H       1.5365  -1.1198  1.6409
H       3.3083  -1.0412  -1.6260
H       3.1985  -0.0520  -0.1859
H       -0.8402  -2.2741  -1.0754
H       -1.2328  -1.0309  -2.0065
