27

Co      0.0044  0.0221  -0.0031
Cl      -1.0875  1.6090  -1.2146
Cl      1.1563  1.4353  1.3587
C       2.6452  -0.7121  -0.8338
C       2.1336  -1.9253  -0.1160
C       -2.5244  -1.3026  -0.4351
C       -2.4130  -1.1390  1.0502
N       1.5135  0.0633  -1.3063
N       1.0805  -1.5226  0.8930
N       -1.1564  -1.3552  -1.0537
N       -1.4834  -0.0544  1.3539
H       2.9700  -2.3817  0.3934
H       1.7025  -2.6666  -0.7729
H       -3.0626  -0.4928  -0.8976
H       -3.0562  -2.2221  -0.6339
H       1.7566  1.0339  -1.3850
H       1.2099  -0.2226  -2.2163
H       -1.9297  0.8413  1.2732
H       -1.1355  -0.1089  2.2908
H       -2.0172  -2.0487  1.4774
H       -3.3849  -0.9766  1.4870
H       0.5771  -2.3370  1.1898
H       1.5136  -1.1268  1.7062
H       3.3422  -0.9625  -1.6210
H       3.1658  -0.1017  -0.1144
H       -0.8226  -2.2984  -1.0733
H       -1.2298  -1.0405  -2.0026
