27

Co      -0.0094  -0.0122  0.0052
Cl      -1.1103  1.6437  -1.2319
Cl      1.1787  1.4684  1.3816
C       2.7259  -0.7093  -0.8166
C       2.1663  -1.9861  -0.1029
C       -2.5837  -1.3321  -0.4553
C       -2.4347  -1.1792  1.0595
N       1.5122  0.0809  -1.3507
N       1.1033  -1.5107  0.8960
N       -1.1803  -1.3231  -1.0121
N       -1.4702  -0.0432  1.3085
H       2.8635  -2.6022  0.4606
H       1.6992  -2.6155  -0.8576
H       -3.1281  -0.4751  -0.8232
H       -3.0626  -2.2322  -0.8237
H       1.6767  1.0748  -1.3700
H       1.1579  -0.1852  -2.2498
H       -1.8892  0.8636  1.1885
H       -1.0630  -0.0509  2.2270
H       -2.0493  -2.0892  1.4962
H       -3.3633  -0.9407  1.5587
H       0.5388  -2.2673  1.2303
H       1.4797  -1.0065  1.6843
H       3.3293  -0.9077  -1.6974
H       3.3023  -0.1018  -0.1370
H       -0.7414  -2.2288  -0.9981
H       -1.1721  -0.9729  -1.9507
