27

Co      -0.0055  -0.0310  -0.0083
Cl      -1.0897  1.6224  -1.2176
Cl      1.1851  1.4939  1.3963
C       2.6707  -0.7181  -0.8295
C       2.1428  -1.9354  -0.0991
C       -2.5400  -1.3151  -0.4410
C       -2.4322  -1.1617  1.0617
N       1.4912  0.0589  -1.3022
N       1.0304  -1.4774  0.8012
N       -1.1434  -1.3109  -0.9932
N       -1.4612  -0.0661  1.3068
H       2.9159  -2.4194  0.4835
H       1.7429  -2.6635  -0.7919
H       -3.0606  -0.4806  -0.8735
H       -3.0513  -2.2244  -0.7221
H       1.7082  1.0397  -1.3488
H       1.2201  -0.2078  -2.2273
H       -1.8978  0.8302  1.1847
H       -1.1168  -0.0713  2.2482
H       -2.0606  -2.0635  1.5247
H       -3.3890  -0.9398  1.5029
H       0.4945  -2.2644  1.1088
H       1.4321  -1.0596  1.6221
H       3.3067  -0.9979  -1.6515
H       3.2342  -0.0866  -0.1635
H       -0.7789  -2.2439  -0.9962
H       -1.1861  -1.0055  -1.9475
