27

Co      0.0032  0.0145  0.0028
Cl      -1.0794  1.5975  -1.2117
Cl      1.1499  1.4306  1.3494
C       2.6467  -0.7134  -0.8305
C       2.1428  -1.9376  -0.0846
C       -2.5316  -1.3246  -0.4480
C       -2.4156  -1.1383  1.0537
N       1.4823  0.0886  -1.2932
N       1.0652  -1.5076  0.8587
N       -1.1522  -1.3198  -1.0411
N       -1.4459  -0.0475  1.3359
H       2.9473  -2.4208  0.4464
H       1.7185  -2.6613  -0.7668
H       -3.0754  -0.5108  -0.8948
H       -3.0433  -2.2458  -0.6827
H       1.7235  1.0605  -1.3554
H       1.1867  -0.1833  -2.2106
H       -1.8844  0.8546  1.2792
H       -1.0780  -0.1140  2.2639
H       -2.0496  -2.0399  1.5228
H       -3.3799  -0.9188  1.4855
H       0.5298  -2.3014  1.1520
H       1.4781  -1.1060  1.6816
H       3.2695  -1.0027  -1.6634
H       3.2316  -0.0905  -0.1744
H       -0.7862  -2.2491  -1.0660
H       -1.2148  -0.9911  -1.9863
