27

Co      -0.0003  0.0015  0.0028
Cl      -1.0911  1.6252  -1.2218
Cl      1.1383  1.4124  1.3413
C       2.6089  -0.7098  -0.8089
C       2.1019  -1.8833  -0.1124
C       -2.4700  -1.2687  -0.4311
C       -2.3875  -1.1354  1.0524
N       1.5137  0.0584  -1.3205
N       1.0817  -1.5241  0.8688
N       -1.1038  -1.3470  -1.0305
N       -1.4868  -0.0381  1.3727
H       2.9493  -2.3488  0.3676
H       1.6797  -2.6083  -0.7907
H       -2.9716  -0.4309  -0.8759
H       -3.0282  -2.1615  -0.6629
H       1.7602  1.0263  -1.4019
H       1.2341  -0.2374  -2.2352
H       -1.9370  0.8531  1.2783
H       -1.1452  -0.0821  2.3111
H       -1.9831  -2.0412  1.4821
H       -3.3749  -0.9975  1.4661
H       0.5911  -2.3518  1.1505
H       1.4991  -1.1347  1.6938
H       3.2923  -1.0262  -1.5810
H       3.1540  -0.0951  -0.1188
H       -0.7747  -2.2909  -1.0172
H       -1.1629  -1.0589  -1.9879
