27

Co      0.0278  0.0248  0.0202
Cl      -1.0803  1.5988  -1.2160
Cl      1.1150  1.3771  1.3130
C       2.6051  -0.7022  -0.7957
C       2.0936  -1.8900  -0.0848
C       -2.5026  -1.3116  -0.4465
C       -2.4069  -1.1360  1.0502
N       1.4818  0.0800  -1.3197
N       1.0792  -1.4933  0.8534
N       -1.1241  -1.3077  -1.0228
N       -1.4470  -0.0463  1.3491
H       2.9061  -2.4137  0.3875
H       1.6478  -2.5708  -0.7968
H       -3.0337  -0.4878  -0.8841
H       -3.0204  -2.2222  -0.6963
H       1.7326  1.0422  -1.4479
H       1.1875  -0.2566  -2.2178
H       -1.8863  0.8557  1.2917
H       -1.0919  -0.1195  2.2794
H       -2.0489  -2.0394  1.5270
H       -3.3828  -0.9208  1.4624
H       0.5360  -2.2905  1.1240
H       1.4928  -1.1182  1.6877
H       3.2368  -1.0535  -1.5993
H       3.1958  -0.0733  -0.1551
H       -0.7626  -2.2361  -1.0364
H       -1.1789  -0.9857  -1.9694
