27

Co      0.0011  0.0148  0.0097
Cl      -1.0921  1.6142  -1.2241
Cl      1.1371  1.4013  1.3349
C       2.6799  -0.7102  -0.8131
C       2.1326  -1.9359  -0.1077
C       -2.5166  -1.3125  -0.4411
C       -2.4357  -1.1530  1.0655
N       1.5128  0.0594  -1.3208
N       1.0927  -1.4738  0.8605
N       -1.1266  -1.2846  -1.0124
N       -1.4837  -0.0517  1.3599
H       2.9099  -2.4869  0.3953
H       1.6612  -2.6038  -0.8150
H       -3.0545  -0.4879  -0.8754
H       -3.0150  -2.2284  -0.7121
H       1.7385  1.0317  -1.4246
H       1.2324  -0.2607  -2.2284
H       -1.9300  0.8456  1.2801
H       -1.1298  -0.1013  2.2956
H       -2.0647  -2.0559  1.5330
H       -3.4115  -0.9515  1.4805
H       0.5723  -2.2567  1.2058
H       1.5377  -1.0431  1.6497
H       3.3484  -0.9865  -1.6143
H       3.2186  -0.0838  -0.1248
H       -0.7529  -2.2123  -1.0395
H       -1.1822  -0.9490  -1.9539
