27

Co      -0.0232  0.0004  -0.0107
Cl      -1.0798  1.5929  -1.2054
Cl      1.1809  1.4691  1.3836
C       2.7277  -0.7163  -0.8291
C       2.1784  -1.9965  -0.0914
C       -2.5722  -1.3436  -0.4587
C       -2.4461  -1.1690  1.0685
N       1.4831  0.0755  -1.2983
N       1.0703  -1.4595  0.8302
N       -1.1680  -1.2804  -1.0148
N       -1.4580  -0.0467  1.3132
H       2.9051  -2.5684  0.4764
H       1.7142  -2.6599  -0.8103
H       -3.1103  -0.5060  -0.8738
H       -3.0649  -2.2555  -0.7616
H       1.6906  1.0586  -1.3571
H       1.2144  -0.2052  -2.2207
H       -1.9076  0.8503  1.2413
H       -1.0757  -0.0821  2.2404
H       -2.0705  -2.0612  1.5498
H       -3.3961  -0.9293  1.5215
H       0.5287  -2.2101  1.2186
H       1.5092  -0.9839  1.6014
H       3.3497  -0.9489  -1.6823
H       3.2847  -0.0760  -0.1619
H       -0.7658  -2.2002  -1.0305
H       -1.2109  -0.9519  -1.9607
