27

Co      0.0049  0.0102  0.0045
Cl      -1.0708  1.5890  -1.2052
Cl      1.1365  1.4076  1.3391
C       2.5965  -0.6964  -0.7988
C       2.0948  -1.8999  -0.0784
C       -2.5008  -1.3188  -0.4577
C       -2.3921  -1.1235  1.0496
N       1.4566  0.0843  -1.2977
N       1.0751  -1.4918  0.8515
N       -1.1274  -1.3063  -1.0450
N       -1.4198  -0.0375  1.3338
H       2.9581  -2.4208  0.3261
H       1.6087  -2.5733  -0.7695
H       -3.0044  -0.4969  -0.9378
H       -3.0680  -2.2241  -0.6315
H       1.7385  1.0412  -1.4420
H       1.2727  -0.2586  -2.2278
H       -1.8932  0.8533  1.3193
H       -1.0821  -0.1292  2.2713
H       -2.0145  -2.0062  1.5504
H       -3.3800  -0.9299  1.4441
H       0.5927  -2.3023  1.1889
H       1.5678  -1.1351  1.6552
H       3.2747  -1.0863  -1.5508
H       3.1448  -0.0289  -0.1586
H       -0.8214  -2.2578  -1.0726
H       -1.2203  -1.0178  -2.0023
