27

Co      0.0085  -0.0004  -0.0059
Cl      -1.0770  1.6047  -1.2153
Cl      1.1490  1.4347  1.3552
C       2.6397  -0.7020  -0.8295
C       2.1286  -1.9397  -0.0846
C       -2.4909  -1.3183  -0.4489
C       -2.4245  -1.1354  1.0725
N       1.4524  0.0748  -1.2797
N       1.0256  -1.4761  0.8185
N       -1.1079  -1.3148  -1.0399
N       -1.4519  -0.0480  1.3708
H       2.9605  -2.4205  0.4087
H       1.6773  -2.6543  -0.7549
H       -2.9755  -0.4846  -0.9293
H       -3.0651  -2.2146  -0.6450
H       1.7141  1.0380  -1.4090
H       1.2511  -0.2485  -2.2123
H       -1.9204  0.8409  1.3253
H       -1.1315  -0.1197  2.3191
H       -2.0648  -2.0189  1.5833
H       -3.4238  -0.9375  1.4360
H       0.5080  -2.2701  1.1432
H       1.5051  -1.1300  1.6353
H       3.3230  -1.0233  -1.5998
H       3.1624  -0.0345  -0.1650
H       -0.8079  -2.2700  -1.0890
H       -1.2109  -1.0129  -1.9935
