27

Co      0.0229  0.0085  0.0174
Cl      -1.0824  1.6048  -1.2163
Cl      1.1206  1.3929  1.3207
C       2.6174  -0.7099  -0.8122
C       2.1012  -1.8840  -0.0800
C       -2.4900  -1.2926  -0.4413
C       -2.4080  -1.1479  1.0586
N       1.4962  0.0831  -1.3282
N       1.0490  -1.4960  0.8264
N       -1.1058  -1.3093  -1.0021
N       -1.4687  -0.0407  1.3569
H       2.9074  -2.3801  0.4299
H       1.6876  -2.5903  -0.7864
H       -2.9923  -0.4461  -0.8655
H       -3.0255  -2.1844  -0.7219
H       1.7445  1.0485  -1.4241
H       1.2111  -0.2251  -2.2379
H       -1.9157  0.8522  1.2646
H       -1.1278  -0.0827  2.2942
H       -2.0325  -2.0475  1.5274
H       -3.3885  -0.9554  1.4686
H       0.4957  -2.3002  1.0652
H       1.4368  -1.1383  1.6842
H       3.2303  -1.0833  -1.6216
H       3.2280  -0.0788  -0.1894
H       -0.7489  -2.2405  -0.9977
H       -1.1494  -1.0047  -1.9557
