27

Co      0.0271  0.0099  0.0271
Cl      -1.0868  1.6156  -1.2245
Cl      1.1215  1.3868  1.3183
C       2.5982  -0.7024  -0.8168
C       2.0948  -1.8798  -0.1016
C       -2.4868  -1.3054  -0.4454
C       -2.3872  -1.1086  1.0442
N       1.4701  0.0556  -1.2561
N       1.0599  -1.4612  0.8344
N       -1.1264  -1.3437  -1.0660
N       -1.4344  -0.0483  1.3527
H       2.9687  -2.3379  0.3448
H       1.6360  -2.6091  -0.7527
H       -2.9960  -0.5044  -0.9537
H       -3.0651  -2.2224  -0.5619
H       1.7499  1.0103  -1.4244
H       1.2384  -0.2945  -2.1703
H       -1.8980  0.8431  1.2966
H       -1.1438  -0.1242  2.3092
H       -2.0093  -2.0023  1.5220
H       -3.3819  -0.9403  1.4302
H       0.5699  -2.2789  1.1442
H       1.5573  -1.1399  1.6528
H       3.2980  -1.0572  -1.5639
H       3.1301  -0.0578  -0.1417
H       -0.8654  -2.3110  -1.1372
H       -1.2384  -1.0229  -2.0118
