27

Co      0.0263  0.0190  0.0103
Cl      -1.0948  1.6268  -1.2236
Cl      1.1313  1.4042  1.3332
C       2.6232  -0.6921  -0.8402
C       2.1113  -1.9164  -0.1055
C       -2.4998  -1.2846  -0.4451
C       -2.3932  -1.1381  1.0528
N       1.4847  0.0743  -1.3042
N       1.0472  -1.5237  0.8975
N       -1.1196  -1.3631  -1.0342
N       -1.4662  -0.0475  1.3513
H       2.9949  -2.3749  0.3273
H       1.6389  -2.6444  -0.7497
H       -2.9644  -0.4451  -0.9376
H       -3.1060  -2.1715  -0.6047
H       1.7544  1.0347  -1.4460
H       1.2640  -0.2580  -2.2270
H       -1.9551  0.8280  1.2658
H       -1.1766  -0.0872  2.3110
H       -1.9663  -2.0317  1.4889
H       -3.3814  -1.0184  1.4739
H       0.5592  -2.3539  1.1869
H       1.5466  -1.2223  1.7247
H       3.3703  -1.0018  -1.5664
H       3.1010  -0.0391  -0.1272
H       -0.8607  -2.3339  -1.0353
H       -1.2022  -1.1054  -2.0025
