27

Co      -0.0030  0.0039  0.0005
Cl      -1.1027  1.6295  -1.2225
Cl      1.1745  1.4645  1.3753
C       2.6972  -0.7386  -0.8150
C       2.1720  -1.9531  -0.1155
C       -2.5699  -1.3049  -0.4348
C       -2.4367  -1.1848  1.0536
N       1.5237  0.0437  -1.2965
N       1.0951  -1.4891  0.8159
N       -1.1709  -1.3249  -0.9789
N       -1.4998  -0.0636  1.3041
H       2.9026  -2.4553  0.5123
H       1.7937  -2.6757  -0.8298
H       -3.1138  -0.4587  -0.8146
H       -3.0453  -2.2115  -0.7891
H       1.7224  1.0291  -1.3282
H       1.1452  -0.2124  -2.1906
H       -1.9239  0.8351  1.1519
H       -1.1221  -0.0498  2.2331
H       -2.0411  -2.1040  1.4640
H       -3.3716  -0.9764  1.5499
H       0.5312  -2.2587  1.1204
H       1.4451  -1.0039  1.6274
H       3.2904  -0.9479  -1.6974
H       3.2964  -0.1538  -0.1328
H       -0.7448  -2.2348  -0.9250
H       -1.1688  -1.0241  -1.9350
