27

Co      0.0229  0.0104  0.0158
Cl      -1.0938  1.6121  -1.2165
Cl      1.1288  1.3963  1.3261
C       2.6707  -0.7048  -0.8406
C       2.1283  -1.9258  -0.0873
C       -2.5224  -1.2886  -0.4497
C       -2.4159  -1.1676  1.0673
N       1.4999  0.0838  -1.3117
N       1.0497  -1.4763  0.8489
N       -1.1228  -1.3064  -0.9968
N       -1.4892  -0.0346  1.3365
H       2.9557  -2.4448  0.3718
H       1.6436  -2.6137  -0.7665
H       -2.9751  -0.4199  -0.8987
H       -3.1133  -2.1601  -0.6893
H       1.7651  1.0474  -1.4395
H       1.3019  -0.2418  -2.2431
H       -1.9943  0.8295  1.2174
H       -1.2053  -0.0337  2.3004
H       -1.9745  -2.0474  1.5223
H       -3.4001  -1.0390  1.4968
H       0.5361  -2.2788  1.1654
H       1.5406  -1.1469  1.6668
H       3.3553  -1.0629  -1.6003
H       3.2053  -0.0393  -0.1834
H       -0.8322  -2.2666  -0.9977
H       -1.1853  -1.0385  -1.9631
