27

Co      0.0336  0.0190  0.0083
Cl      -1.0978  1.6353  -1.2321
Cl      1.1370  1.4143  1.3391
C       2.6344  -0.7033  -0.8057
C       2.1311  -1.9479  -0.1007
C       -2.5140  -1.3119  -0.4466
C       -2.4203  -1.1511  1.0601
N       1.4546  0.0609  -1.2828
N       1.0641  -1.4972  0.8426
N       -1.1265  -1.3558  -1.0261
N       -1.4623  -0.0552  1.3587
H       2.9243  -2.4515  0.4246
H       1.6986  -2.6486  -0.8007
H       -3.0081  -0.4621  -0.8806
H       -3.0672  -2.1996  -0.7088
H       1.6849  1.0290  -1.4216
H       1.1364  -0.2768  -2.1741
H       -1.9043  0.8429  1.2745
H       -1.1183  -0.1057  2.2979
H       -2.0570  -2.0565  1.5248
H       -3.3941  -0.9447  1.4758
H       0.5005  -2.2746  1.1315
H       1.4868  -1.1160  1.6692
H       3.2919  -0.9476  -1.6240
H       3.1723  -0.0751  -0.1173
H       -0.7825  -2.2930  -1.0193
H       -1.1793  -1.0589  -1.9818
