27

Co      0.0249  0.0017  0.0126
Cl      -1.1011  1.6390  -1.2372
Cl      1.1369  1.4115  1.3423
C       2.6481  -0.6899  -0.8074
C       2.1035  -1.9240  -0.1050
C       -2.5024  -1.3164  -0.4437
C       -2.4295  -1.1443  1.0662
N       1.4935  0.0694  -1.3493
N       1.0714  -1.5015  0.8908
N       -1.1200  -1.3299  -1.0375
N       -1.4727  -0.0516  1.3788
H       2.8933  -2.4858  0.3653
H       1.6196  -2.5748  -0.8217
H       -3.0179  -0.4799  -0.8820
H       -3.0353  -2.2165  -0.7015
H       1.7098  1.0407  -1.4750
H       1.2074  -0.2758  -2.2477
H       -1.9074  0.8513  1.3003
H       -1.1248  -0.1125  2.3166
H       -2.0764  -2.0481  1.5438
H       -3.4127  -0.9356  1.4609
H       0.5331  -2.2927  1.1862
H       1.5076  -1.1142  1.7066
H       3.3384  -0.9730  -1.5876
H       3.1664  -0.0534  -0.1139
H       -0.7725  -2.2665  -1.0827
H       -1.1815  -0.9813  -1.9744
