27

Co      0.0304  -0.0029  0.0071
Cl      -1.0957  1.6298  -1.2245
Cl      1.1322  1.4071  1.3349
C       2.6014  -0.7063  -0.8144
C       2.1007  -1.8889  -0.1053
C       -2.4817  -1.2737  -0.4346
C       -2.3990  -1.1425  1.0593
N       1.4766  0.0520  -1.2704
N       1.0551  -1.4781  0.8246
N       -1.1042  -1.3383  -1.0168
N       -1.4813  -0.0489  1.3505
H       2.9780  -2.3361  0.3491
H       1.6573  -2.6243  -0.7593
H       -2.9409  -0.4264  -0.9113
H       -3.0852  -2.1547  -0.6198
H       1.7560  1.0098  -1.4190
H       1.2657  -0.2833  -2.1949
H       -1.9666  0.8245  1.2328
H       -1.2088  -0.0640  2.3175
H       -1.9838  -2.0323  1.5133
H       -3.3980  -1.0168  1.4539
H       0.5670  -2.2977  1.1359
H       1.5431  -1.1509  1.6448
H       3.3149  -1.0534  -1.5509
H       3.1162  -0.0572  -0.1297
H       -0.8447  -2.3087  -1.0273
H       -1.1956  -1.0760  -1.9839
