27

Co      -0.0232  0.0037  -0.0124
Cl      -1.0753  1.5959  -1.2069
Cl      1.1779  1.4691  1.3851
C       2.6752  -0.7190  -0.8118
C       2.1468  -1.9493  -0.1088
C       -2.5400  -1.3302  -0.4454
C       -2.4353  -1.1513  1.0560
N       1.4906  0.0454  -1.2969
N       1.0687  -1.4713  0.8143
N       -1.1482  -1.2913  -1.0059
N       -1.4511  -0.0695  1.3189
H       2.9209  -2.4608  0.4465
H       1.7204  -2.6529  -0.8080
H       -3.0942  -0.5215  -0.8924
H       -3.0231  -2.2614  -0.7028
H       1.7156  1.0212  -1.3814
H       1.2183  -0.2545  -2.2117
H       -1.8865  0.8351  1.2626
H       -1.0739  -0.1291  2.2454
H       -2.0803  -2.0568  1.5281
H       -3.3941  -0.9150  1.4889
H       0.5534  -2.2504  1.1729
H       1.4985  -1.0188  1.6015
H       3.3356  -0.9713  -1.6254
H       3.2122  -0.0897  -0.1222
H       -0.7601  -2.2149  -1.0050
H       -1.2013  -0.9876  -1.9589
