27

Co      -0.0249  -0.0035  -0.0134
Cl      -1.0858  1.5998  -1.2068
Cl      1.1639  1.4433  1.3626
C       2.6730  -0.7227  -0.8248
C       2.1581  -1.9485  -0.0937
C       -2.5491  -1.3029  -0.4400
C       -2.4230  -1.1648  1.0581
N       1.5094  0.0826  -1.3002
N       1.1013  -1.5057  0.8666
N       -1.1463  -1.2507  -0.9740
N       -1.4666  -0.0529  1.2861
H       2.9605  -2.4529  0.4239
H       1.7176  -2.6583  -0.7800
H       -3.0996  -0.4814  -0.8662
H       -3.0212  -2.2293  -0.7315
H       1.7468  1.0625  -1.3065
H       1.2589  -0.1487  -2.2421
H       -1.9241  0.8366  1.1821
H       -1.0993  -0.0585  2.2171
H       -2.0153  -2.0649  1.4992
H       -3.3725  -0.9672  1.5323
H       0.6191  -2.3013  1.2418
H       1.5377  -1.0329  1.6411
H       3.3088  -1.0048  -1.6505
H       3.2453  -0.1036  -0.1556
H       -0.7496  -2.1717  -0.9474
H       -1.1815  -0.9631  -1.9338
