27

Co      0.0219  0.0013  0.0131
Cl      -1.0999  1.6395  -1.2342
Cl      1.1392  1.4208  1.3433
C       2.6124  -0.7131  -0.8091
C       2.1033  -1.8843  -0.1133
C       -2.4971  -1.2925  -0.4286
C       -2.4155  -1.1425  1.0502
N       1.5082  0.0450  -1.3111
N       1.0654  -1.5064  0.8411
N       -1.1168  -1.3309  -0.9993
N       -1.4721  -0.0733  1.3440
H       2.9387  -2.3401  0.3951
H       1.6973  -2.6210  -0.7914
H       -3.0218  -0.4762  -0.8868
H       -3.0172  -2.2089  -0.6610
H       1.7528  1.0117  -1.4174
H       1.2128  -0.2685  -2.2149
H       -1.9064  0.8256  1.2384
H       -1.1455  -0.1116  2.2886
H       -2.0484  -2.0571  1.4952
H       -3.3917  -0.9536  1.4661
H       0.5487  -2.3257  1.1023
H       1.4765  -1.1389  1.6810
H       3.2927  -1.0249  -1.5855
H       3.1586  -0.0975  -0.1201
H       -0.7797  -2.2708  -0.9968
H       -1.1712  -1.0344  -1.9545
