27

Co      -0.0269  -0.0126  -0.0201
Cl      -1.0915  1.6185  -1.2134
Cl      1.1693  1.4532  1.3776
C       2.6748  -0.7105  -0.7971
C       2.1304  -1.9374  -0.1206
C       -2.5181  -1.2814  -0.4314
C       -2.4233  -1.1744  1.0637
N       1.5291  0.0584  -1.3637
N       1.1040  -1.5164  0.8819
N       -1.1194  -1.2851  -0.9729
N       -1.5026  -0.0484  1.3321
H       2.8760  -2.4934  0.4280
H       1.6994  -2.6057  -0.8545
H       -3.0609  -0.4297  -0.8058
H       -2.9847  -2.1837  -0.8075
H       1.7118  1.0478  -1.3733
H       1.2017  -0.2019  -2.2730
H       -1.9274  0.8527  1.1980
H       -1.0997  -0.0457  2.2501
H       -2.0268  -2.0914  1.4787
H       -3.3739  -0.9824  1.5344
H       0.5892  -2.3006  1.2265
H       1.4756  -0.9957  1.6631
H       3.3268  -0.9284  -1.6297
H       3.2200  -0.1144  -0.0877
H       -0.6793  -2.1900  -0.9138
H       -1.1176  -0.9844  -1.9274
