27

Co      -0.0030  -0.0007  0.0007
Cl      -1.0872  1.6125  -1.2126
Cl      1.1595  1.4486  1.3616
C       2.6676  -0.7206  -0.8295
C       2.1512  -1.9409  -0.0959
C       -2.5349  -1.2971  -0.4457
C       -2.4125  -1.1651  1.0555
N       1.4891  0.0661  -1.2889
N       1.0472  -1.4885  0.8126
N       -1.1349  -1.3167  -0.9839
N       -1.4642  -0.0517  1.3086
H       2.9339  -2.4195  0.4751
H       1.7501  -2.6730  -0.7850
H       -3.0363  -0.4473  -0.8696
H       -3.0636  -2.1921  -0.7345
H       1.7189  1.0423  -1.3503
H       1.2024  -0.2066  -2.2081
H       -1.9199  0.8357  1.1919
H       -1.1192  -0.0563  2.2483
H       -2.0075  -2.0665  1.4942
H       -3.3670  -0.9776  1.5195
H       0.5086  -2.2767  1.1152
H       1.4534  -1.0813  1.6361
H       3.2939  -0.9979  -1.6616
H       3.2416  -0.0946  -0.1666
H       -0.7700  -2.2486  -0.9393
H       -1.1616  -1.0497  -1.9513
