27

Co      -0.0071  -0.0343  0.0005
Cl      -1.1044  1.6381  -1.2293
Cl      1.1780  1.4783  1.3800
C       2.7271  -0.7200  -0.8483
C       2.1853  -1.9888  -0.0802
C       -2.5613  -1.3238  -0.4527
C       -2.4422  -1.1787  1.0766
N       1.4861  0.0898  -1.2935
N       1.0421  -1.4757  0.8202
N       -1.1492  -1.2945  -0.9936
N       -1.4688  -0.0425  1.3097
H       2.9149  -2.5277  0.5134
H       1.7500  -2.6806  -0.7903
H       -3.0619  -0.4589  -0.8542
H       -3.0807  -2.2131  -0.7855
H       1.6871  1.0779  -1.3058
H       1.2170  -0.1475  -2.2293
H       -1.9197  0.8461  1.1735
H       -1.1201  -0.0258  2.2526
H       -2.0524  -2.0679  1.5504
H       -3.3933  -0.9540  1.5316
H       0.4838  -2.2373  1.1576
H       1.4537  -1.0356  1.6259
H       3.3153  -0.9801  -1.7178
H       3.3201  -0.0815  -0.2094
H       -0.7675  -2.2222  -1.0069
H       -1.1777  -0.9675  -1.9415
