27

Co      0.0364  0.0173  -0.0011
Cl      -1.0847  1.6081  -1.2103
Cl      1.1414  1.4186  1.3480
C       2.6245  -0.6882  -0.8191
C       2.1103  -1.9354  -0.0894
C       -2.5106  -1.3002  -0.4565
C       -2.4021  -1.1506  1.0644
N       1.4486  0.0830  -1.2999
N       1.0462  -1.4954  0.8633
N       -1.1328  -1.3761  -1.0598
N       -1.4733  -0.0267  1.3655
H       2.9550  -2.4516  0.3469
H       1.6210  -2.6149  -0.7725
H       -2.9442  -0.4220  -0.9119
H       -3.1526  -2.1531  -0.6580
H       1.7146  1.0422  -1.4736
H       1.2324  -0.2806  -2.2147
H       -1.9688  0.8459  1.2872
H       -1.1717  -0.0687  2.3213
H       -1.9812  -2.0293  1.5331
H       -3.3970  -1.0165  1.4673
H       0.5183  -2.2907  1.1706
H       1.5389  -1.1756  1.6841
H       3.3342  -1.0055  -1.5703
H       3.1240  -0.0165  -0.1390
H       -0.8684  -2.3455  -1.0723
H       -1.2218  -1.1077  -2.0253
