27

Co      -0.0017  0.0078  -0.0034
Cl      -1.1039  1.6307  -1.2237
Cl      1.1758  1.4658  1.3777
C       2.7270  -0.7235  -0.8503
C       2.1833  -1.9841  -0.1112
C       -2.5668  -1.3094  -0.4433
C       -2.4443  -1.1836  1.0673
N       1.5184  0.0611  -1.3048
N       1.0656  -1.4972  0.8530
N       -1.1645  -1.3357  -1.0026
N       -1.5073  -0.0553  1.3293
H       2.9491  -2.4907  0.4603
H       1.7459  -2.6979  -0.7947
H       -3.0659  -0.4528  -0.8649
H       -3.1030  -2.2001  -0.7333
H       1.7354  1.0420  -1.3668
H       1.2259  -0.2132  -2.2214
H       -1.9724  0.8264  1.1979
H       -1.1688  -0.0502  2.2757
H       -2.0238  -2.0839  1.4941
H       -3.4004  -1.0163  1.5354
H       0.5270  -2.2776  1.1806
H       1.4967  -1.0783  1.6564
H       3.3919  -0.9395  -1.6748
H       3.2539  -0.0978  -0.1449
H       -0.8066  -2.2734  -0.9845
H       -1.2000  -1.0467  -1.9623
