27

Co      -0.0304  0.0066  -0.0090
Cl      -1.0879  1.6044  -1.2083
Cl      1.1873  1.4750  1.3929
C       2.7036  -0.7241  -0.8184
C       2.1528  -1.9467  -0.1131
C       -2.5692  -1.3241  -0.4466
C       -2.4357  -1.1697  1.0534
N       1.5385  0.0531  -1.3392
N       1.1063  -1.4985  0.8607
N       -1.1790  -1.3035  -1.0090
N       -1.4839  -0.0571  1.3104
H       2.9350  -2.4987  0.3915
H       1.6875  -2.6163  -0.8219
H       -3.1112  -0.4974  -0.8776
H       -3.0705  -2.2410  -0.7137
H       1.7684  1.0304  -1.4071
H       1.2870  -0.2398  -2.2606
H       -1.9413  0.8347  1.2357
H       -1.1099  -0.0957  2.2400
H       -2.0299  -2.0696  1.4956
H       -3.3894  -0.9809  1.5192
H       0.6163  -2.2932  1.2251
H       1.5484  -1.0410  1.6382
H       3.3787  -1.0057  -1.6120
H       3.2392  -0.0928  -0.1285
H       -0.7964  -2.2320  -0.9951
H       -1.2197  -1.0085  -1.9650
