27

Co      0.0290  0.0273  0.0162
Cl      -1.0861  1.5971  -1.2157
Cl      1.1192  1.3784  1.3140
C       2.6375  -0.7016  -0.8435
C       2.1127  -1.9012  -0.1052
C       -2.5107  -1.2982  -0.4318
C       -2.4134  -1.1290  1.0542
N       1.5189  0.0851  -1.3139
N       1.0723  -1.4999  0.9136
N       -1.1430  -1.3219  -1.0563
N       -1.4844  -0.0472  1.3650
H       2.9467  -2.3674  0.3902
H       1.6628  -2.6372  -0.7577
H       -3.0673  -0.5018  -0.8953
H       -3.0209  -2.2301  -0.6271
H       1.7625  1.0534  -1.3939
H       1.2017  -0.2020  -2.2208
H       -1.9270  0.8493  1.2648
H       -1.1575  -0.0930  2.3081
H       -2.0257  -2.0389  1.4903
H       -3.3916  -0.9619  1.4793
H       0.5531  -2.3128  1.1902
H       1.5081  -1.1261  1.7360
H       3.3195  -0.9830  -1.6346
H       3.1812  -0.0961  -0.1406
H       -0.8130  -2.2636  -1.1271
H       -1.2254  -0.9549  -1.9874
