27

Co      0.0009  0.0109  0.0024
Cl      -1.0778  1.5875  -1.1994
Cl      1.1438  1.4148  1.3448
C       2.6420  -0.7189  -0.8035
C       2.1144  -1.8959  -0.0936
C       -2.5162  -1.2858  -0.4425
C       -2.4047  -1.1625  1.0561
N       1.5138  0.0693  -1.3243
N       1.0868  -1.4813  0.8265
N       -1.1359  -1.3116  -1.0101
N       -1.4942  -0.0281  1.3398
H       2.9132  -2.4201  0.4046
H       1.6786  -2.5811  -0.8061
H       -3.0141  -0.4257  -0.8494
H       -3.0638  -2.1672  -0.7311
H       1.7638  1.0371  -1.4152
H       1.2460  -0.2373  -2.2382
H       -1.9617  0.8539  1.2345
H       -1.1471  -0.0482  2.2764
H       -1.9834  -2.0558  1.4989
H       -3.3786  -1.0097  1.4971
H       0.5645  -2.2782  1.1322
H       1.4980  -1.0685  1.6425
H       3.2701  -1.0720  -1.6077
H       3.2355  -0.0900  -0.1624
H       -0.7770  -2.2454  -0.9859
H       -1.1777  -1.0260  -1.9701
