27

Co      0.0053  0.0370  -0.0005
Cl      -1.0811  1.5943  -1.2082
Cl      1.1499  1.4233  1.3514
C       2.6695  -0.7118  -0.8345
C       2.1418  -1.9447  -0.0886
C       -2.5328  -1.3197  -0.4535
C       -2.4296  -1.1581  1.0642
N       1.5015  0.0791  -1.3203
N       1.0713  -1.5098  0.8635
N       -1.1499  -1.3327  -1.0395
N       -1.4855  -0.0413  1.3638
H       2.9861  -2.4605  0.3536
H       1.6563  -2.6296  -0.7672
H       -3.0095  -0.4725  -0.9225
H       -3.1219  -2.2049  -0.6526
H       1.7821  1.0379  -1.4660
H       1.3055  -0.2602  -2.2475
H       -1.9826  0.8341  1.3288
H       -1.1587  -0.1156  2.3098
H       -2.0181  -2.0388  1.5400
H       -3.4211  -1.0077  1.4687
H       0.5667  -2.3175  1.1807
H       1.5626  -1.1741  1.6779
H       3.3700  -1.0572  -1.5858
H       3.1891  -0.0426  -0.1668
H       -0.8470  -2.2890  -1.0495
H       -1.2366  -1.0636  -2.0041
