27

Co      0.0000  -0.0046  0.0002
Cl      -1.0729  1.5950  -1.2056
Cl      1.1421  1.4234  1.3468
C       2.6339  -0.6948  -0.8242
C       2.1117  -1.9183  -0.0898
C       -2.4925  -1.2953  -0.4485
C       -2.3938  -1.1354  1.0579
N       1.4729  0.0873  -1.3175
N       1.0331  -1.4932  0.8544
N       -1.1093  -1.3185  -1.0280
N       -1.4455  -0.0334  1.3476
H       2.9045  -2.4189  0.4379
H       1.6811  -2.6260  -0.7842
H       -3.0036  -0.4566  -0.8825
H       -3.0278  -2.1937  -0.7085
H       1.6943  1.0621  -1.3852
H       1.1899  -0.2003  -2.2350
H       -1.8880  0.8643  1.2640
H       -1.0876  -0.0754  2.2791
H       -2.0125  -2.0353  1.5179
H       -3.3647  -0.9411  1.4844
H       0.4979  -2.2870  1.1458
H       1.4441  -1.0958  1.6797
H       3.2785  -0.9865  -1.6372
H       3.1936  -0.0637  -0.1581
H       -0.7541  -2.2515  -1.0335
H       -1.1587  -1.0046  -1.9781
