27

Co      0.0258  0.0107  0.0153
Cl      -1.0837  1.6043  -1.2193
Cl      1.1184  1.3836  1.3197
C       2.6431  -0.6883  -0.8239
C       2.0963  -1.9069  -0.0917
C       -2.4869  -1.3031  -0.4429
C       -2.4186  -1.1379  1.0679
N       1.4983  0.0908  -1.3530
N       1.0483  -1.4911  0.8878
N       -1.1074  -1.3117  -1.0403
N       -1.4760  -0.0358  1.3883
H       2.8871  -2.4471  0.3951
H       1.6267  -2.5793  -0.7966
H       -3.0052  -0.4682  -0.8775
H       -3.0168  -2.2037  -0.7020
H       1.7216  1.0607  -1.4583
H       1.2074  -0.2341  -2.2573
H       -1.9168  0.8629  1.3048
H       -1.1322  -0.0920  2.3255
H       -2.0538  -2.0385  1.5425
H       -3.4061  -0.9442  1.4618
H       0.4986  -2.2856  1.1574
H       1.4696  -1.1203  1.7198
H       3.3079  -1.0012  -1.6153
H       3.1923  -0.0548  -0.1531
H       -0.7585  -2.2463  -1.0953
H       -1.1714  -0.9517  -1.9738
