27

Co      -0.0009  -0.0154  0.0006
Cl      -1.1035  1.6334  -1.2302
Cl      1.1736  1.4638  1.3747
C       2.6773  -0.7244  -0.8287
C       2.1586  -1.9467  -0.0955
C       -2.5539  -1.3294  -0.4405
C       -2.4373  -1.1538  1.0620
N       1.5067  0.0742  -1.2912
N       1.0936  -1.4972  0.8567
N       -1.1726  -1.3132  -1.0374
N       -1.4738  -0.0536  1.3254
H       2.9521  -2.4545  0.4315
H       1.7161  -2.6521  -0.7837
H       -3.0998  -0.5102  -0.8772
H       -3.0610  -2.2500  -0.6908
H       1.7389  1.0520  -1.3291
H       1.2300  -0.1808  -2.2181
H       -1.9127  0.8446  1.2269
H       -1.1215  -0.0849  2.2638
H       -2.0636  -2.0520  1.5308
H       -3.4007  -0.9381  1.4955
H       0.5793  -2.2877  1.1924
H       1.5213  -1.0589  1.6533
H       3.3052  -1.0075  -1.6590
H       3.2572  -0.1039  -0.1655
H       -0.8105  -2.2470  -1.0904
H       -1.2397  -0.9606  -1.9746
