27

Co      -0.0041  -0.0333  -0.0005
Cl      -1.1056  1.6376  -1.2323
Cl      1.1757  1.4691  1.3789
C       2.6856  -0.7256  -0.8216
C       2.1500  -1.9326  -0.1067
C       -2.5413  -1.3164  -0.4284
C       -2.4414  -1.1570  1.0659
N       1.5284  0.0675  -1.3163
N       1.0923  -1.4870  0.8540
N       -1.1623  -1.3064  -1.0312
N       -1.4954  -0.0515  1.3394
H       2.8865  -2.4524  0.4910
H       1.7427  -2.6383  -0.8185
H       -3.1192  -0.4965  -0.8202
H       -2.9998  -2.2429  -0.7523
H       1.7148  1.0576  -1.3008
H       1.1692  -0.1574  -2.2269
H       -1.8947  0.8605  1.1940
H       -1.1151  -0.0569  2.2672
H       -2.0858  -2.0712  1.5163
H       -3.3952  -0.9216  1.5094
H       0.5460  -2.2638  1.1656
H       1.4465  -0.9866  1.6563
H       3.2748  -0.9637  -1.6978
H       3.2962  -0.1415  -0.1514
H       -0.7446  -2.2186  -1.0898
H       -1.2010  -0.9039  -1.9518
