27

Co      -0.0198  -0.0123  -0.0307
Cl      -1.0888  1.6071  -1.2054
Cl      1.1917  1.4894  1.4003
C       2.7310  -0.7202  -0.8267
C       2.1843  -2.0056  -0.0950
C       -2.5670  -1.3120  -0.4479
C       -2.4579  -1.2029  1.0836
N       1.4895  0.0719  -1.3126
N       1.0656  -1.4764  0.8204
N       -1.1459  -1.2750  -0.9655
N       -1.5049  -0.0473  1.3110
H       2.9144  -2.5666  0.4807
H       1.7356  -2.6751  -0.8168
H       -3.0552  -0.4279  -0.8314
H       -3.0850  -2.1878  -0.8195
H       1.6967  1.0581  -1.3516
H       1.2418  -0.1940  -2.2453
H       -1.9763  0.8316  1.1775
H       -1.1408  -0.0219  2.2487
H       -2.0450  -2.0913  1.5411
H       -3.4122  -1.0058  1.5452
H       0.5259  -2.2289  1.2104
H       1.4949  -0.9948  1.5934
H       3.3667  -0.9450  -1.6694
H       3.2709  -0.0754  -0.1499
H       -0.7451  -2.1979  -0.9206
H       -1.1680  -1.0050  -1.9328
