27

Co      -0.0364  -0.0160  0.0013
Cl      -1.0876  1.6188  -1.2222
Cl      1.1699  1.4600  1.3746
C       2.7023  -0.7208  -0.7989
C       2.1493  -1.9498  -0.0959
C       -2.5333  -1.3284  -0.4488
C       -2.4371  -1.1654  1.0617
N       1.5149  0.0636  -1.3531
N       1.0818  -1.4894  0.8224
N       -1.1280  -1.2648  -0.9741
N       -1.4522  -0.0547  1.3255
H       2.8450  -2.5395  0.4966
H       1.7314  -2.5984  -0.8602
H       -3.1002  -0.4940  -0.8276
H       -2.9690  -2.2492  -0.8317
H       1.6911  1.0528  -1.3724
H       1.1857  -0.2052  -2.2596
H       -1.8547  0.8632  1.2519
H       -1.0221  -0.1029  2.2319
H       -2.1010  -2.0785  1.5364
H       -3.3798  -0.8870  1.5127
H       0.5243  -2.2529  1.1457
H       1.4281  -0.9799  1.6250
H       3.2776  -0.9841  -1.6770
H       3.3153  -0.1097  -0.1566
H       -0.6530  -2.1548  -0.9439
H       -1.1196  -0.9286  -1.9167
