27

Co      0.0332  0.0005  -0.0007
Cl      -1.0955  1.6191  -1.2207
Cl      1.1535  1.4364  1.3591
C       2.6561  -0.7069  -0.8225
C       2.1264  -1.9312  -0.0975
C       -2.5244  -1.3081  -0.4386
C       -2.4344  -1.1598  1.0726
N       1.4925  0.0756  -1.3143
N       1.0642  -1.4847  0.8553
N       -1.1507  -1.3548  -1.0583
N       -1.5100  -0.0366  1.3774
H       2.9142  -2.4493  0.4223
H       1.6777  -2.6227  -0.7951
H       -3.0185  -0.4487  -0.8556
H       -3.0911  -2.1866  -0.7054
H       1.7229  1.0472  -1.4144
H       1.1937  -0.2349  -2.2190
H       -1.9609  0.8522  1.2546
H       -1.1811  -0.0582  2.3243
H       -2.0468  -2.0541  1.5362
H       -3.4194  -0.9862  1.4782
H       0.5064  -2.2664  1.1437
H       1.4823  -1.0934  1.6785
H       3.3074  -0.9883  -1.6331
H       3.2106  -0.0777  -0.1476
H       -0.8209  -2.2998  -1.1127
H       -1.2255  -1.0059  -1.9970
