27

Co      -0.0237  0.0096  -0.0190
Cl      -1.0935  1.6240  -1.2210
Cl      1.1742  1.4604  1.3817
C       2.6726  -0.7185  -0.7929
C       2.1464  -1.9552  -0.1199
C       -2.5377  -1.3107  -0.4339
C       -2.4406  -1.1713  1.0580
N       1.5220  0.0508  -1.3514
N       1.1181  -1.5368  0.8817
N       -1.1397  -1.2953  -0.9786
N       -1.4864  -0.0700  1.3309
H       2.9023  -2.4983  0.4289
H       1.7248  -2.6319  -0.8506
H       -3.1042  -0.4824  -0.8285
H       -2.9852  -2.2329  -0.7847
H       1.7169  1.0356  -1.3855
H       1.1805  -0.2239  -2.2515
H       -1.8998  0.8416  1.2462
H       -1.0646  -0.1127  2.2409
H       -2.0789  -2.0945  1.4897
H       -3.3877  -0.9406  1.5205
H       0.5956  -2.3210  1.2147
H       1.4887  -1.0269  1.6695
H       3.3252  -0.9220  -1.6305
H       3.2161  -0.1232  -0.0799
H       -0.6875  -2.1950  -0.9178
H       -1.1452  -0.9994  -1.9342
