27

Co      0.0012  -0.0036  -0.0008
Cl      -1.0741  1.5962  -1.2068
Cl      1.1433  1.4246  1.3493
C       2.6065  -0.7052  -0.8076
C       2.0977  -1.8869  -0.0802
C       -2.4808  -1.2953  -0.4444
C       -2.3933  -1.1342  1.0584
N       1.4912  0.0915  -1.3372
N       1.0611  -1.5174  0.8522
N       -1.1161  -1.3355  -1.0511
N       -1.4656  -0.0221  1.3743
H       2.9179  -2.3909  0.4034
H       1.6702  -2.5818  -0.7873
H       -2.9833  -0.4478  -0.8702
H       -3.0401  -2.1809  -0.6997
H       1.7379  1.0594  -1.4081
H       1.2248  -0.2004  -2.2573
H       -1.9105  0.8743  1.3122
H       -1.0997  -0.0892  2.3018
H       -2.0140  -2.0275  1.5322
H       -3.3810  -0.9531  1.4562
H       0.5346  -2.3287  1.1133
H       1.4540  -1.1325  1.6935
H       3.2300  -1.0739  -1.6091
H       3.2066  -0.0716  -0.1787
H       -0.7666  -2.2707  -1.0665
H       -1.1794  -1.0167  -1.9991
