27

Co      0.0258  0.0109  0.0150
Cl      -1.0837  1.6043  -1.2193
Cl      1.1184  1.3836  1.3197
C       2.6079  -0.6993  -0.8284
C       2.0820  -1.8658  -0.0955
C       -2.4742  -1.2943  -0.4334
C       -2.4146  -1.1262  1.0614
N       1.5132  0.0742  -1.3283
N       1.0534  -1.4924  0.8696
N       -1.1055  -1.3045  -1.0366
N       -1.4788  -0.0511  1.3790
H       2.9671  -2.3365  0.3206
H       1.6109  -2.5812  -0.7513
H       -2.9813  -0.4852  -0.9309
H       -3.0354  -2.2080  -0.5904
H       1.7978  1.0293  -1.4678
H       1.3155  -0.2625  -2.2567
H       -1.9514  0.8333  1.3113
H       -1.1877  -0.1173  2.3359
H       -2.0326  -2.0174  1.5420
H       -3.4238  -0.9744  1.4260
H       0.5715  -2.3290  1.1501
H       1.5389  -1.1864  1.7018
H       3.3294  -1.1006  -1.5430
H       3.1322  -0.0457  -0.1578
H       -0.8289  -2.2670  -1.1074
H       -1.2153  -0.9839  -1.9827
