27

Co      -0.0250  -0.0427  -0.0422
Cl      0.0002  -2.2258  -0.2052
Cl      -0.0001  2.2891  0.2161
N       -1.4996  0.1563  -1.3452
N       -1.5651  -0.1423  1.3786
N       1.5406  0.1699  -1.4453
N       1.6060  -0.1554  1.4788
C       -2.7681  0.4042  -0.6115
C       -2.8175  -0.4239  0.6517
C       2.7682  0.3996  -0.6208
C       2.8174  -0.4190  0.6610
H       -1.0812  0.9631  -1.8507
H       -2.8601  1.4481  -0.3502
H       -3.6019  0.1347  -1.2357
H       -3.6800  -0.0900  1.2143
H       -2.9384  -1.4720  0.4298
H       -1.3605  0.8074  1.7606
H       -1.1555  -0.8595  1.9823
H       1.3769  -0.6947  -1.9680
H       1.1634  0.9947  -1.9374
H       3.6474  0.1297  -1.1903
H       2.8465  1.4436  -0.3645
H       2.9251  -1.4670  0.4441
H       3.7210  -0.0846  1.1734
H       1.2373  -0.8906  2.0691
H       1.4149  0.7853  1.8809
H       -1.3177  -0.7152  -1.8478
