27

Co      0.0000  0.0488  0.0034
Cl      0.0002  -2.3070  -0.2154
Cl      -0.0001  2.2397  0.2088
N       -1.3239  0.1649  -1.3117
N       -1.3239  -0.1751  1.3149
N       1.3239  0.1610  -1.3116
N       1.3239  -0.1709  1.3150
C       -2.7592  0.3693  -0.6945
C       -2.7595  -0.3686  0.6911
C       2.7593  0.3693  -0.6946
C       2.7594  -0.3682  0.6913
H       -1.3013  0.8926  -2.0245
H       -2.6444  1.4385  -0.5151
H       -3.6641  0.2018  -1.2689
H       -3.6595  -0.2074  1.2702
H       -2.6450  -1.4406  0.5050
H       -1.4069  0.6326  1.9142
H       -1.2647  -0.9605  1.9534
H       1.3885  -0.6971  -1.8222
H       1.3015  0.8886  -2.0285
H       3.6640  0.2051  -1.2691
H       2.6407  1.4451  -0.5119
H       2.6416  -1.4440  0.5019
H       3.6640  -0.2103  1.2659
H       1.2646  -0.9559  1.9575
H       1.4149  0.6333  1.9101
H       -1.3848  -0.6969  -1.8263
