27

Co      -0.0741  0.0000  0.0000
Cl      0.0068  -2.3004  -0.2234
Cl      0.0064  2.3004  0.2235
N       -1.5192  0.1170  -1.4146
N       -1.4407  -0.1171  1.3409
N       1.5078  0.1311  -1.3855
N       1.5863  -0.1308  1.4591
C       -2.7546  0.4354  -0.6360
C       -2.7057  -0.4199  0.6163
C       2.7612  0.4226  -0.6158
C       2.8104  -0.4362  0.6355
H       -1.3303  0.8310  -2.0933
H       -2.7318  1.4863  -0.3893
H       -3.6467  0.2346  -1.2143
H       -3.5583  -0.2433  1.2537
H       -2.6834  -1.4709  0.3549
H       -1.5050  0.7450  1.8421
H       -1.2325  -0.8512  1.9898
H       1.5901  -0.7425  -1.8808
H       1.3535  0.8566  -2.0536
H       3.6365  0.2456  -1.2311
H       2.7383  1.4699  -0.3566
H       2.7883  -1.4835  0.3910
H       3.7248  -0.2342  1.1920
H       1.4518  -0.8370  2.1563
H       1.6878  0.7573  1.9253
H       -1.6034  -0.7601  -1.8860
