27

Co      0.0250  -0.0061  0.0389
Cl      0.0002  -2.2750  -0.2216
Cl      -0.0001  2.2792  0.2176
N       -1.3750  0.1427  -1.3244
N       -1.3882  -0.1469  1.3611
N       1.4126  0.1290  -1.2978
N       1.2686  -0.1328  1.1874
C       -2.7189  0.3659  -0.6522
C       -2.7191  -0.3595  0.6350
C       2.7680  0.3852  -0.6628
C       2.6700  -0.3489  0.6065
H       -1.5099  0.8834  -2.0639
H       -2.6046  1.4314  -0.4429
H       -3.5871  0.2406  -1.2901
H       -3.5973  -0.2665  1.2759
H       -2.5766  -1.4208  0.4077
H       -1.5853  0.6697  1.9367
H       -1.5717  -0.9011  2.1051
H       1.5963  -0.7197  -1.8153
H       1.5263  0.8316  -2.0807
H       3.6299  0.2350  -1.2965
H       2.6674  1.4507  -0.4642
H       2.5415  -1.4103  0.3604
H       3.4679  -0.2800  1.3563
H       1.3914  -0.8881  1.9159
H       1.4322  0.6785  1.7715
H       -1.5573  -0.6840  -1.8922
