27

Co      0.0000  0.0000  0.0000
Cl      0.0002  -2.3177  -0.2138
Cl      -0.0001  2.3178  0.2139
N       -1.3760  0.1779  -1.2845
N       -1.3760  -0.1780  1.2844
N       1.3760  0.1740  -1.2844
N       1.3759  -0.1737  1.2845
C       -2.7568  0.3422  -0.6675
C       -2.7570  -0.3415  0.6675
C       2.7568  0.3422  -0.6676
C       2.7570  -0.3411  0.6677
H       -1.3630  0.9444  -1.9586
H       -2.6961  1.4143  -0.5067
H       -3.6756  0.1211  -1.2015
H       -3.6710  -0.1200  1.2061
H       -2.6967  -1.4135  0.5067
H       -1.4404  0.6493  1.8534
H       -1.3634  -0.9449  1.9582
H       1.4489  -0.6499  -1.8489
H       1.3632  0.9403  -1.9626
H       3.6756  0.1244  -1.2016
H       2.6925  1.4180  -0.5036
H       2.6933  -1.4169  0.5036
H       3.6755  -0.1228  1.2017
H       1.3633  -0.9404  1.9623
H       1.4484  0.6500  1.8493
H       -1.4452  -0.6496  -1.8531
