27

Co      0.0000  -0.0488  -0.0034
Cl      0.0002  -2.3002  -0.2142
Cl      -0.0001  2.3676  0.2211
N       -1.5364  0.1576  -1.3730
N       -1.4579  -0.1476  1.2958
N       1.4579  0.1575  -1.2992
N       1.5364  -0.1471  1.3695
C       -2.8251  0.4108  -0.6479
C       -2.7762  -0.3954  0.6316
C       2.7760  0.3961  -0.6284
C       2.8253  -0.4097  0.6515
H       -1.3526  0.9248  -1.9921
H       -2.8880  1.4655  -0.4469
H       -3.6711  0.1247  -1.2566
H       -3.5827  -0.1267  1.2994
H       -2.8395  -1.4501  0.4227
H       -1.4833  0.7268  1.7894
H       -1.2918  -0.8777  1.9592
H       1.5105  -0.6634  -1.8763
H       1.2546  0.9441  -1.8893
H       3.5827  0.1342  -1.2960
H       2.8390  1.4508  -0.4132
H       2.8889  -1.4644  0.4577
H       3.6710  -0.1161  1.2603
H       1.3899  -0.8572  2.0627
H       1.5813  0.7422  1.8333
H       -1.6087  -0.6779  -1.9208
