27

Co      0.0741  0.0427  0.0422
Cl      -0.0063  -2.2767  -0.2196
Cl      -0.0067  2.2135  0.2089
N       -1.4975  0.1449  -1.3838
N       -1.4321  -0.1592  1.3502
N       1.4304  0.1344  -1.3391
N       1.3650  -0.1483  1.3057
C       -2.7891  0.4136  -0.6776
C       -2.7402  -0.3924  0.6374
C       2.7336  0.4116  -0.6784
C       2.6846  -0.3900  0.6383
H       -1.4259  0.8184  -2.1434
H       -2.7727  1.4839  -0.5218
H       -3.7421  0.1390  -1.1472
H       -3.6639  -0.1814  1.1689
H       -2.6956  -1.4586  0.4422
H       -1.6736  0.6318  1.9577
H       -1.3525  -0.9230  2.0109
H       1.6282  -0.7261  -1.8338
H       1.3050  0.8156  -2.0767
H       3.6638  0.1333  -1.1699
H       2.7210  1.4819  -0.5251
H       2.6442  -1.4563  0.4455
H       3.5901  -0.1753  1.1872
H       1.2313  -0.9198  1.9444
H       1.5892  0.6356  1.9217
H       -1.7168  -0.7247  -1.8699
