27

Co      0.0000  -0.0488  -0.0034
Cl      0.0002  -2.2719  -0.2164
Cl      -0.0001  2.3393  0.2232
N       -1.6367  0.1038  -1.3723
N       -1.6367  -0.0938  1.3688
N       1.6367  0.1074  -1.3722
N       1.6367  -0.0971  1.3689
C       -2.7779  0.4370  -0.5903
C       -2.7782  -0.4363  0.5936
C       2.7780  0.4370  -0.5904
C       2.7782  -0.4359  0.5939
H       -1.0963  0.9524  -1.7976
H       -2.9315  1.4821  -0.3504
H       -3.6533  0.0937  -1.1311
H       -3.6578  -0.0859  1.1301
H       -2.9322  -1.4786  0.3605
H       -1.5967  0.7565  1.8982
H       -1.1337  -0.8856  1.8678
H       1.6156  -0.6932  -1.9888
H       1.0965  0.9558  -1.7985
H       3.6532  0.0852  -1.1312
H       2.9354  1.4756  -0.3548
H       2.9362  -1.4745  0.3649
H       3.6532  -0.0769  1.1347
H       1.1381  -0.8885  1.8689
H       1.5881  0.7573  1.9016
H       -1.6194  -0.6929  -1.9854
