27

Co      0.0741  0.0427  0.0422
Cl      -0.0063  -2.3101  -0.2138
Cl      -0.0067  2.2470  0.2031
N       -1.4503  0.1658  -1.2949
N       -1.4634  -0.1801  1.3350
N       1.4617  0.1516  -1.3239
N       1.3177  -0.1655  1.2168
C       -2.8027  0.3803  -0.6539
C       -2.8029  -0.3739  0.6334
C       2.7963  0.3930  -0.6744
C       2.6982  -0.3568  0.6147
H       -1.4483  0.9149  -1.9761
H       -2.9562  1.4360  -0.4905
H       -3.4958  0.0478  -1.4435
H       -3.5105  -0.0804  1.4214
H       -2.9283  -1.4255  0.4452
H       -1.6027  0.6024  1.9730
H       -1.4731  -0.9999  1.9467
H       1.5566  -0.6967  -1.8454
H       1.4255  0.8887  -2.0163
H       3.5059  0.0360  -1.4270
H       2.9500  1.4525  -0.5244
H       2.8240  -1.4121  0.4104
H       3.3439  -0.0878  1.4835
H       1.2536  -1.0126  1.7808
H       1.4194  0.5915  1.8891
H       -1.5433  -0.6806  -1.8410
