27

Co      0.0250  0.0427  0.0422
Cl      0.0002  -2.2695  -0.2196
Cl      -0.0001  2.2063  0.2089
N       -1.4053  0.1412  -1.3173
N       -1.4184  -0.1555  1.3574
N       1.4429  0.1275  -1.2908
N       1.2989  -0.1414  1.1837
C       -2.7545  0.3659  -0.6539
C       -2.7547  -0.3595  0.6333
C       2.8036  0.3852  -0.6645
C       2.7056  -0.3489  0.6048
H       -1.5604  0.8551  -2.0939
H       -2.6473  1.4314  -0.4497
H       -3.6192  0.2319  -1.2953
H       -3.6294  -0.2645  1.2778
H       -2.6194  -1.4208  0.4045
H       -1.6291  0.6324  1.9769
H       -1.5852  -0.9401  2.0645
H       1.6131  -0.7463  -1.7680
H       1.5769  0.8033  -2.1107
H       3.6620  0.2263  -1.3017
H       2.7102  1.4507  -0.4710
H       2.5842  -1.4103  0.3571
H       3.5000  -0.2780  1.3582
H       1.4050  -0.9271  1.8752
H       1.4759  0.6411  1.8117
H       -1.5742  -0.7106  -1.8449
