27

Co      0.0000  0.0000  0.0000
Cl      0.0002  -2.3249  -0.2138
Cl      -0.0001  2.3249  0.2139
N       -1.3961  0.1710  -1.3724
N       -1.3961  -0.1711  1.3723
N       1.3961  0.1672  -1.3723
N       1.3960  -0.1669  1.3723
C       -2.7711  0.4043  -0.6838
C       -2.7713  -0.4036  0.6838
C       2.7712  0.4043  -0.6840
C       2.7713  -0.4031  0.6841
H       -1.1947  0.9487  -1.9669
H       -2.8364  1.4599  -0.5000
H       -3.5646  0.1183  -1.3589
H       -3.5646  -0.1172  1.3590
H       -2.8371  -1.4620  0.5000
H       -1.4237  0.6666  1.9283
H       -1.1951  -0.9493  1.9664
H       1.4277  -0.6672  -1.9238
H       1.1949  0.9447  -1.9708
H       3.5646  0.1216  -1.3590
H       2.8328  1.4665  -0.4969
H       2.8336  -1.4654  0.4969
H       3.5645  -0.1201  1.3592
H       1.1950  -0.9447  1.9705
H       1.4272  0.6673  1.9242
H       -1.4240  -0.6669  -1.9280
