27

Co      0.0000  -0.0488  -0.0034
Cl      0.0002  -2.2610  -0.2089
Cl      -0.0001  2.3284  0.2157
N       -1.5945  0.1614  -1.3812
N       -1.5159  -0.1515  1.3041
N       1.5160  0.1614  -1.3075
N       1.5945  -0.1510  1.3778
C       -2.8562  0.4202  -0.6395
C       -2.8073  -0.4048  0.6232
C       2.8071  0.4054  -0.6200
C       2.8564  -0.4191  0.6431
H       -1.1849  0.9385  -1.9218
H       -2.9795  1.4662  -0.4093
H       -3.7097  0.0906  -1.2197
H       -3.6259  -0.0926  1.2579
H       -2.9310  -1.4507  0.3851
H       -1.3007  0.7818  1.7196
H       -1.1242  -0.8914  1.8890
H       1.3234  -0.7185  -1.8064
H       1.0869  0.9579  -1.8190
H       3.6213  0.1001  -1.2591
H       2.9305  1.4515  -0.3756
H       2.9804  -1.4651  0.4201
H       3.7096  -0.0819  1.2233
H       1.2223  -0.8710  1.9924
H       1.3941  0.7973  1.7635
H       -1.4216  -0.7330  -1.8510
