27

Co      0.0250  -0.0061  0.0389
Cl      0.0002  -2.3194  -0.2233
Cl      -0.0001  2.3236  0.2193
N       -1.4354  0.1438  -1.3260
N       -1.4485  -0.1480  1.3627
N       1.4730  0.1301  -1.2994
N       1.3289  -0.1339  1.1890
C       -2.7355  0.4081  -0.6481
C       -2.7358  -0.4017  0.6309
C       2.7847  0.4274  -0.6588
C       2.6867  -0.3911  0.6024
H       -1.2476  0.8770  -1.9766
H       -2.7988  1.4649  -0.4475
H       -3.5631  0.1247  -1.2771
H       -3.5778  -0.1506  1.2584
H       -2.7709  -1.4544  0.4124
H       -1.5165  0.7103  1.8792
H       -1.3094  -0.8947  2.0179
H       1.5230  -0.7603  -1.7578
H       1.2640  0.8252  -1.9935
H       3.6059  0.1191  -1.2835
H       2.8617  1.4842  -0.4688
H       2.7357  -1.4438  0.3650
H       3.4439  -0.1641  1.3434
H       1.1292  -0.8817  1.8287
H       1.3589  0.7191  1.7140
H       -1.4840  -0.7246  -1.8347
