27

Co      0.0000  0.0000  0.0000
Cl      0.0002  -2.3249  -0.2138
Cl      -0.0001  2.3249  0.2139
N       -1.3552  0.2060  -1.3677
N       -1.3552  -0.2061  1.3676
N       1.3552  0.2021  -1.3676
N       1.3552  -0.2018  1.3676
C       -2.7842  0.3692  -0.6923
C       -2.7844  -0.3685  0.6923
C       2.7842  0.3692  -0.6925
C       2.7844  -0.3681  0.6925
H       -1.5340  0.8955  -2.1732
H       -2.7325  1.4335  -0.5138
H       -3.5965  0.1807  -1.3865
H       -3.5920  -0.1796  1.3912
H       -2.7332  -1.4356  0.5138
H       -1.4892  0.6722  1.8489
H       -1.5344  -0.8961  2.1727
H       1.4977  -0.6728  -1.8445
H       1.5342  0.8915  -2.1728
H       3.5965  0.1885  -1.3867
H       2.7289  1.4401  -0.5107
H       2.7297  -1.4390  0.5107
H       3.5964  -0.1869  1.3868
H       1.5299  -0.8916  2.1724
H       1.4972  0.6729  1.8448
H       -1.4940  -0.6726  -1.8486
