27

Co      0.0000  0.0000  0.0000
Cl      0.0002  -2.2451  -0.2142
Cl      -0.0001  2.2451  0.2143
N       -1.3552  0.1483  -1.3249
N       -1.4337  -0.1484  1.3984
N       1.4338  0.1482  -1.3984
N       1.3552  -0.1479  1.3248
C       -2.7618  0.3858  -0.6691
C       -2.8111  -0.3998  0.6887
C       2.8109  0.4005  -0.6888
C       2.7620  -0.3846  0.6693
H       -1.3094  0.8894  -2.0179
H       -2.5784  1.4512  -0.4357
H       -3.6922  0.3069  -1.2454
H       -3.7760  -0.2960  1.2108
H       -2.6281  -1.4680  0.4701
H       -1.5441  0.7084  1.9082
H       -1.4081  -0.8703  2.1205
H       1.5489  -0.7090  -1.9075
H       1.4078  0.8694  -2.1212
H       3.7806  0.2967  -1.2063
H       2.6276  1.4688  -0.4707
H       2.5793  -1.4530  0.4364
H       3.6921  -0.3049  1.2457
H       1.3098  -0.8891  2.0178
H       1.4502  0.6944  1.8637
H       -1.4507  -0.6940  -1.8637
