27

Co      0.0741  0.0427  0.0422
Cl      -0.0063  -2.3531  -0.2267
Cl      -0.0067  2.2899  0.2159
N       -1.4780  0.1323  -1.3333
N       -1.4126  -0.1466  1.2998
N       1.4109  0.1218  -1.2887
N       1.3454  -0.1357  1.2553
C       -2.7879  0.4139  -0.6450
C       -2.7390  -0.3928  0.6048
C       2.7323  0.4119  -0.6458
C       2.6834  -0.3904  0.6058
H       -1.4803  0.8285  -2.0780
H       -2.8706  1.4658  -0.4422
H       -3.5267  0.1456  -1.4015
H       -3.4530  -0.1881  1.4187
H       -2.7936  -1.4406  0.3626
H       -1.5683  0.6566  1.9020
H       -1.4069  -0.9332  1.9454
H       1.5185  -0.7509  -1.7781
H       1.3593  0.8258  -2.0113
H       3.4484  0.1400  -1.4243
H       2.8190  1.4639  -0.4455
H       2.7421  -1.4382  0.3659
H       3.3747  -0.1819  1.4415
H       1.2856  -0.9300  1.8789
H       1.4794  0.6604  1.8660
H       -1.6071  -0.7495  -1.8141
