27

Co      0.0250  0.0488  0.0034
Cl      0.0002  -2.2787  -0.2176
Cl      -0.0001  2.2115  0.2109
N       -1.4105  0.1810  -1.4189
N       -1.4105  -0.1913  1.4222
N       1.3696  0.1673  -1.3187
N       1.3695  -0.1771  1.3221
C       -2.7819  0.3997  -0.6895
C       -2.7821  -0.3990  0.6862
C       2.7820  0.4042  -0.6806
C       2.7821  -0.4031  0.6773
H       -1.4711  0.7954  -2.2808
H       -2.6404  1.4652  -0.4780
H       -3.7415  0.2565  -1.2091
H       -3.7369  -0.2621  1.2104
H       -2.6410  -1.4673  0.4680
H       -1.5160  0.7108  1.8630
H       -1.4345  -0.8633  2.2097
H       1.4346  -0.7981  -1.6541
H       1.3894  0.7633  -2.1902
H       3.6959  0.2651  -1.2548
H       2.6541  1.4725  -0.4650
H       2.6550  -1.4714  0.4549
H       3.6958  -0.2703  1.2516
H       1.3481  -0.8307  2.1191
H       1.4610  0.7343  1.7420
H       -1.4938  -0.7751  -1.7752
