27

Co      0.0741  0.0000  0.0000
Cl      -0.0063  -2.2379  -0.2142
Cl      -0.0067  2.2379  0.2143
N       -1.4221  0.1427  -1.2864
N       -1.5007  -0.1428  1.3599
N       1.4336  0.1322  -1.3154
N       1.3550  -0.1319  1.2418
C       -2.7403  0.4029  -0.6248
C       -2.7896  -0.4169  0.6444
C       2.7338  0.4156  -0.6453
C       2.6849  -0.3998  0.6257
H       -1.2570  0.8792  -1.9445
H       -2.7893  1.4576  -0.4012
H       -3.5491  0.1564  -1.2921
H       -3.6374  -0.1454  1.2529
H       -2.8391  -1.4716  0.4356
H       -1.5754  0.7360  1.8416
H       -1.3556  -0.8601  2.0471
H       1.4871  -0.7397  -1.8053
H       1.2342  0.8568  -1.9809
H       3.5592  0.1409  -1.2756
H       2.7868  1.4704  -0.4389
H       2.7385  -1.4545  0.4046
H       3.4708  -0.1491  1.3150
H       1.1361  -0.8765  1.8775
H       1.3884  0.7251  1.7615
H       -1.4775  -0.7216  -1.7971
