27

Co      0.0000  0.0000  0.0000
Cl      0.0002  -2.2540  -0.2181
Cl      -0.0001  2.2541  0.2182
N       -1.5816  0.0840  -1.3251
N       -1.5816  -0.0841  1.3250
N       1.5816  0.0876  -1.3251
N       1.5816  -0.0873  1.3251
C       -2.7486  0.4363  -0.5775
C       -2.7488  -0.4356  0.5775
C       2.7486  0.4363  -0.5776
C       2.7488  -0.4352  0.5777
H       -1.2077  0.9024  -1.8302
H       -2.9167  1.4765  -0.3261
H       -3.5091  0.1235  -1.2798
H       -3.5136  -0.1224  1.2754
H       -2.9174  -1.4730  0.3261
H       -1.6378  0.7215  1.9224
H       -1.2081  -0.9030  1.8297
H       1.6298  -0.7221  -1.9254
H       1.2079  0.9059  -1.8311
H       3.5091  0.1149  -1.2799
H       2.9206  1.4700  -0.3305
H       2.9214  -1.4689  0.3305
H       3.5090  -0.1133  1.2801
H       1.2124  -0.9059  1.8308
H       1.6293  0.7222  1.9258
H       -1.6335  -0.7219  -1.9221
