27

Co      0.0000  -0.0488  -0.0034
Cl      0.0002  -2.2667  -0.2200
Cl      -0.0001  2.3341  0.2269
N       -1.5402  0.1184  -1.4153
N       -1.5402  -0.1084  1.4118
N       1.5403  0.1221  -1.4152
N       1.5402  -0.1117  1.4119
C       -2.7404  0.4681  -0.6104
C       -2.7406  -0.4674  0.6137
C       2.7404  0.4681  -0.6105
C       2.7406  -0.4670  0.6139
H       -1.1826  0.8722  -1.9905
H       -2.8958  1.5055  -0.3458
H       -3.4950  0.1675  -1.3287
H       -3.4995  -0.1597  1.3277
H       -2.8965  -1.5048  0.3559
H       -1.5701  0.8060  1.8341
H       -1.2200  -0.8054  2.0607
H       1.5890  -0.7427  -1.9246
H       1.1828  0.8757  -1.9870
H       3.4950  0.1634  -1.3288
H       2.8997  1.5018  -0.3502
H       2.9005  -1.5007  0.3603
H       3.4949  -0.1551  1.3323
H       1.2200  -0.8084  2.0574
H       1.5615  0.8067  1.8375
H       -1.5927  -0.7424  -1.9213
