27

Co      0.0000  0.0000  0.0000
Cl      0.0002  -2.2612  -0.2181
Cl      -0.0001  2.2612  0.2182
N       -1.6477  0.1246  -1.4282
N       -1.5691  -0.1247  1.3545
N       1.5691  0.1283  -1.3545
N       1.6476  -0.1280  1.4282
C       -2.7639  0.4550  -0.6062
C       -2.7151  -0.4395  0.5866
C       2.7149  0.4402  -0.5867
C       2.7641  -0.4538  0.6064
H       -1.1931  0.8356  -2.0309
H       -2.9542  1.5000  -0.3808
H       -3.6541  0.0593  -1.1073
H       -3.5703  -0.0680  1.1422
H       -2.9058  -1.4818  0.3464
H       -1.5201  0.7771  1.8001
H       -1.0953  -0.8558  1.9274
H       1.5121  -0.7778  -1.8031
H       1.0951  0.8587  -1.9243
H       3.5657  0.0650  -1.1467
H       2.9090  1.4787  -0.3508
H       2.9589  -1.4924  0.3852
H       3.6541  -0.0536  1.1076
H       1.1934  -0.8392  2.0271
H       1.6098  0.7926  1.8477
H       -1.6141  -0.7922  -1.8439
