27

Co      -0.0490  -0.0488  -0.0034
Cl      0.0068  -2.2166  -0.2072
Cl      0.0064  2.2840  0.2140
N       -1.4905  0.1576  -1.3705
N       -1.4905  -0.1477  1.3671
N       1.5166  0.1543  -1.3149
N       1.5166  -0.1439  1.3115
C       -2.7742  0.4019  -0.6430
C       -2.7744  -0.4012  0.6463
C       2.8299  0.4084  -0.6333
C       2.8300  -0.4073  0.6367
H       -1.2920  0.9478  -1.9587
H       -2.8274  1.4566  -0.4346
H       -3.6170  0.1331  -1.2581
H       -3.6170  -0.1252  1.2616
H       -2.8280  -1.4559  0.4447
H       -1.5292  0.7258  1.8590
H       -1.3295  -0.8811  2.0289
H       1.5858  -0.6821  -1.8608
H       1.3314  0.9181  -1.9393
H       3.6497  0.1425  -1.2811
H       2.8929  1.4632  -0.4188
H       2.8937  -1.4621  0.4290
H       3.6496  -0.1342  1.2847
H       1.3686  -0.8509  2.0097
H       1.5584  0.7461  1.7737
H       -1.5564  -0.6622  -1.9462
