27

Co      -0.0741  -0.0488  -0.0034
Cl      0.0068  -2.2682  -0.2089
Cl      0.0064  2.3355  0.2157
N       -1.5869  0.1301  -1.4074
N       -1.5083  -0.1201  1.3303
N       1.5755  0.1404  -1.3783
N       1.6540  -0.1300  1.4486
C       -2.8280  0.4080  -0.6402
C       -2.7792  -0.3925  0.6239
C       2.8346  0.3952  -0.6200
C       2.8838  -0.4088  0.6431
H       -1.0999  1.0228  -1.7963
H       -2.8926  1.4539  -0.4022
H       -3.7099  0.1326  -1.2002
H       -3.6260  -0.1346  1.2385
H       -2.8442  -1.4385  0.3779
H       -1.3049  0.7160  1.9008
H       -1.0392  -0.9757  1.7634
H       1.4161  -0.6495  -2.0232
H       1.1231  1.0446  -1.7647
H       3.6997  0.1429  -1.2170
H       2.8954  1.4412  -0.3657
H       2.9453  -1.4549  0.4102
H       3.7880  -0.1248  1.1813
H       1.2629  -0.9577  1.9382
H       1.4869  0.7283  1.9803
H       -1.4257  -0.6671  -2.0322
