27

Co      0.0741  0.0427  0.0422
Cl      -0.0063  -2.3603  -0.2267
Cl      -0.0067  2.2971  0.2159
N       -1.4418  0.1391  -1.3708
N       -1.4549  -0.1534  1.4109
N       1.4533  0.1286  -1.3998
N       1.3092  -0.1425  1.2928
C       -2.7951  0.4344  -0.6750
C       -2.7954  -0.4279  0.6545
C       2.7887  0.4471  -0.6955
C       2.6907  -0.4108  0.6358
H       -1.2581  0.8365  -2.0597
H       -2.8091  1.4883  -0.4576
H       -3.6151  0.2015  -1.3399
H       -3.6298  -0.2341  1.3179
H       -2.7812  -1.4806  0.4124
H       -1.5428  0.6823  1.9607
H       -1.2829  -0.9215  2.0303
H       1.4930  -0.7766  -1.8368
H       1.2353  0.8141  -2.0962
H       3.6252  0.1860  -1.3234
H       2.8066  1.5039  -0.4953
H       2.6806  -1.4635  0.3813
H       3.4632  -0.2378  1.3799
H       1.0634  -0.9380  1.8607
H       1.3558  0.6714  1.8805
H       -1.4834  -0.7605  -1.8286
