27

Co      -0.0250  0.0061  -0.0389
Cl      0.0002  -2.2915  -0.2139
Cl      -0.0001  2.2875  0.2181
N       -1.4200  0.1426  -1.2779
N       -1.4855  -0.1386  1.3146
N       1.4610  0.1562  -1.3780
N       1.5264  -0.1518  1.4148
C       -2.7418  0.3972  -0.6168
C       -2.7911  -0.4170  0.6536
C       2.7419  0.3926  -0.6260
C       2.7911  -0.4120  0.6629
H       -1.2387  0.8966  -1.9157
H       -2.7853  1.4499  -0.3881
H       -3.5418  0.1606  -1.3007
H       -3.6153  -0.1227  1.2804
H       -2.8637  -1.4737  0.4576
H       -1.5302  0.7347  1.8024
H       -1.2759  -0.8603  1.9765
H       1.5242  -0.6860  -1.9223
H       1.3208  0.9282  -2.0024
H       3.5872  0.1557  -1.2553
H       2.7718  1.4453  -0.4024
H       2.8503  -1.4688  0.4719
H       3.6608  -0.1173  1.2350
H       1.3578  -0.8914  2.0634
H       1.5892  0.7126  1.9227
H       -1.4651  -0.7064  -1.8021
