27

Co      0.0000  -0.0488  -0.0034
Cl      0.0002  -2.2667  -0.2200
Cl      -0.0001  2.3341  0.2269
N       -1.5503  0.1257  -1.3849
N       -1.5503  -0.1158  1.3814
N       1.5503  0.1294  -1.3848
N       1.5503  -0.1190  1.3814
C       -2.7083  0.4382  -0.6031
C       -2.7085  -0.4375  0.6065
C       2.7083  0.4382  -0.6032
C       2.7085  -0.4371  0.6067
H       -1.2932  0.8654  -2.0143
H       -2.8382  1.4920  -0.3961
H       -3.5713  0.1017  -1.1622
H       -3.5713  -0.0938  1.1657
H       -2.8388  -1.4885  0.4063
H       -1.7384  0.7614  1.8482
H       -1.3306  -0.7986  2.0845
H       1.7618  -0.6981  -1.9388
H       1.2934  0.8688  -2.0108
H       3.5713  0.0975  -1.1623
H       2.8420  1.4855  -0.4005
H       2.8429  -1.4844  0.4106
H       3.5712  -0.0892  1.1659
H       1.3305  -0.8016  2.0812
H       1.7344  0.7621  1.8516
H       -1.7656  -0.6978  -1.9354
