27

Co      0.0250  0.0000  0.0000
Cl      0.0002  -2.3177  -0.2138
Cl      -0.0001  2.3178  0.2139
N       -1.3280  0.1727  -1.3147
N       -1.4065  -0.1728  1.3882
N       1.3656  0.1552  -1.2881
N       1.2870  -0.1549  1.2145
C       -2.7559  0.3877  -0.6822
C       -2.8052  -0.4017  0.7018
C       2.8050  0.4069  -0.6928
C       2.7561  -0.3911  0.6733
H       -1.3576  0.9469  -1.9828
H       -2.7730  1.4520  -0.5243
H       -3.5151  0.1449  -1.4226
H       -3.5989  -0.1340  1.3880
H       -2.8228  -1.4688  0.5586
H       -1.6890  0.6165  2.0063
H       -1.4562  -0.9278  2.0854
H       1.6383  -0.6399  -1.8812
H       1.3741  0.8914  -2.0034
H       3.5579  0.1430  -1.4290
H       2.8321  1.4779  -0.5419
H       2.7839  -1.4621  0.5075
H       3.4695  -0.1512  1.4684
H       1.2760  -0.9111  1.9000
H       1.5396  0.6252  1.8374
H       -1.5956  -0.6021  -1.9618
