27

Co      0.0000  0.0000  0.0000
Cl      0.0002  -2.2785  -0.2084
Cl      -0.0001  2.2786  0.2085
N       -1.4063  0.1814  -1.2792
N       -1.4063  -0.1815  1.2791
N       1.4063  0.1776  -1.2791
N       1.4062  -0.1773  1.2791
C       -2.7924  0.3422  -0.6675
C       -2.7926  -0.3415  0.6675
C       2.7925  0.3422  -0.6676
C       2.7926  -0.3411  0.6677
H       -1.3951  0.9497  -1.9533
H       -2.7388  1.4143  -0.5085
H       -3.7077  0.1157  -1.2050
H       -3.7031  -0.1146  1.2097
H       -2.7395  -1.4135  0.5085
H       -1.4707  0.6439  1.8498
H       -1.3955  -0.9502  1.9528
H       1.4792  -0.6445  -1.8454
H       1.3953  0.9457  -1.9573
H       3.7076  0.1191  -1.2052
H       2.7352  1.4180  -0.5053
H       2.7360  -1.4169  0.5054
H       3.7076  -0.1175  1.2053
H       1.3954  -0.9457  1.9569
H       1.4787  0.6446  1.8458
H       -1.4755  -0.6443  -1.8495
