27

Co      0.0000  0.0000  0.0000
Cl      0.0002  -2.2540  -0.2181
Cl      -0.0001  2.2541  0.2182
N       -1.5404  0.1164  -1.3509
N       -1.5404  -0.1166  1.3508
N       1.5404  0.1201  -1.3508
N       1.5403  -0.1198  1.3508
C       -2.7937  0.4359  -0.6029
C       -2.7940  -0.4352  0.6029
C       2.7938  0.4359  -0.6031
C       2.7939  -0.4348  0.6031
H       -1.2909  0.8464  -1.9885
H       -2.8559  1.4733  -0.3090
H       -3.5617  0.2275  -1.3429
H       -3.5662  -0.2264  1.3386
H       -2.8566  -1.4726  0.3090
H       -1.4622  0.7960  1.7852
H       -1.2913  -0.8469  1.9880
H       1.4542  -0.7966  -1.7882
H       1.2911  0.8498  -1.9850
H       3.5617  0.2234  -1.3431
H       2.8598  1.4696  -0.3133
H       2.8606  -1.4685  0.3134
H       3.5616  -0.2218  1.3432
H       1.2912  -0.8499  1.9847
H       1.4537  0.7967  1.7886
H       -1.4579  -0.7964  -1.7849
