27

Co      -0.0490  -0.0488  -0.0034
Cl      0.0068  -2.2630  -0.2125
Cl      0.0064  2.3303  0.2194
N       -1.4817  0.1589  -1.4333
N       -1.4817  -0.1489  1.4298
N       1.5079  0.1555  -1.3776
N       1.5078  -0.1451  1.3743
C       -2.7338  0.3995  -0.6478
C       -2.7340  -0.3988  0.6511
C       2.7894  0.4060  -0.6381
C       2.7896  -0.4049  0.6415
H       -1.2887  0.9616  -2.0047
H       -2.7679  1.4542  -0.4376
H       -3.6065  0.1432  -1.2282
H       -3.6065  -0.1354  1.2318
H       -2.7686  -1.4535  0.4477
H       -1.5253  0.7168  1.9343
H       -1.3261  -0.8949  2.0749
H       1.5819  -0.6731  -1.9362
H       1.3281  0.9319  -1.9853
H       3.6392  0.1526  -1.2513
H       2.8334  1.4608  -0.4219
H       2.8342  -1.4597  0.4320
H       3.6391  -0.1443  1.2548
H       1.3653  -0.8647  2.0557
H       1.5544  0.7371  1.8490
H       -1.5524  -0.6532  -2.0216
