27

Co      0.0000  0.0427  0.0422
Cl      0.0002  -2.3603  -0.2267
Cl      -0.0001  2.2971  0.2159
N       -1.4183  0.1412  -1.3181
N       -1.4314  -0.1556  1.3582
N       1.4969  0.1412  -1.3916
N       1.3529  -0.1551  1.2846
C       -2.7353  0.4035  -0.6681
C       -2.7355  -0.3971  0.6476
C       2.7844  0.4182  -0.6879
C       2.6864  -0.3819  0.6282
H       -1.3081  0.8284  -2.0501
H       -2.7256  1.4738  -0.5093
H       -3.6523  0.1329  -1.1848
H       -3.6625  -0.1656  1.1673
H       -2.6976  -1.4633  0.4640
H       -1.6668  0.6392  1.9559
H       -1.3329  -0.9135  2.0207
H       1.7101  -0.7304  -1.8676
H       1.4065  0.8085  -2.1534
H       3.7406  0.1227  -1.1457
H       2.7748  1.4886  -0.5443
H       2.6488  -1.4482  0.4303
H       3.5786  -0.1745  1.2022
H       1.2346  -0.9324  1.9179
H       1.5729  0.6252  1.9114
H       -1.6119  -0.7174  -1.8238
