27

Co      -0.0250  0.0000  0.0000
Cl      0.0002  -2.3448  -0.2251
Cl      -0.0001  2.3448  0.2252
N       -1.5974  0.0880  -1.3491
N       -1.5189  -0.0881  1.2754
N       1.5599  0.1053  -1.3756
N       1.6384  -0.1050  1.4492
C       -2.7714  0.4373  -0.6056
C       -2.7225  -0.4219  0.5860
C       2.7224  0.4180  -0.5952
C       2.7716  -0.4316  0.6149
H       -1.2906  0.8792  -1.9115
H       -2.8714  1.4911  -0.4034
H       -3.6361  0.1218  -1.1728
H       -3.5477  -0.1306  1.2122
H       -2.8229  -1.4728  0.3690
H       -1.7141  0.6735  1.9283
H       -1.1928  -0.8994  1.8080
H       1.7698  -0.6514  -2.0519
H       1.2745  0.9342  -1.8959
H       3.5932  0.1185  -1.1667
H       2.8125  1.4653  -0.3871
H       2.8624  -1.4789  0.4215
H       3.6815  -0.1071  1.1276
H       1.3773  -0.9146  1.9986
H       1.8674  0.6662  2.0965
H       -1.8125  -0.6886  -1.9721
