27

Co      0.0000  0.0000  0.0000
Cl      0.0002  -2.3056  -0.2198
Cl      -0.0001  2.3056  0.2199
N       -1.5955  0.1312  -1.3963
N       -1.5955  -0.1313  1.3962
N       1.5955  0.1349  -1.3963
N       1.5955  -0.1346  1.3963
C       -2.8231  0.4367  -0.6174
C       -2.8233  -0.4360  0.6174
C       2.8232  0.4366  -0.6176
C       2.8233  -0.4355  0.6176
H       -1.1980  0.8626  -1.9913
H       -2.8707  1.4789  -0.3383
H       -3.7058  0.1944  -1.1959
H       -3.7103  -0.1933  1.1916
H       -2.8714  -1.4782  0.3383
H       -1.4345  0.7991  1.8048
H       -1.1984  -0.8632  1.9908
H       1.4265  -0.7997  -1.8078
H       1.1982  0.8661  -1.9878
H       3.7058  0.1902  -1.1961
H       2.8746  1.4752  -0.3426
H       2.8754  -1.4741  0.3427
H       3.7057  -0.1887  1.1962
H       1.1983  -0.8661  1.9874
H       1.4260  0.7998  1.8082
H       -1.4303  -0.7994  -1.8045
