27

Co      0.0000  0.0000  0.0000
Cl      0.0002  -2.2379  -0.2142
Cl      -0.0001  2.2379  0.2143
N       -1.4011  0.1463  -1.2874
N       -1.4011  -0.1464  1.2873
N       1.4011  0.1462  -1.2873
N       1.4011  -0.1460  1.2873
C       -2.7545  0.3702  -0.6487
C       -2.7547  -0.3695  0.6487
C       2.7546  0.3701  -0.6489
C       2.7547  -0.3690  0.6490
H       -1.3861  0.8717  -2.0119
H       -2.6253  1.4384  -0.4396
H       -3.7008  0.2268  -1.1760
H       -3.6962  -0.2257  1.1807
H       -2.6260  -1.4377  0.4397
H       -1.4969  0.7070  1.8059
H       -1.3866  -0.8722  2.0114
H       1.5016  -0.7076  -1.8052
H       1.3863  0.8714  -2.0121
H       3.7008  0.2264  -1.1762
H       2.6254  1.4385  -0.4403
H       2.6263  -1.4374  0.4403
H       3.7007  -0.2248  1.1763
H       1.3865  -0.8714  2.0118
H       1.5011  0.7077  1.8056
H       -1.5017  -0.7073  -1.8056
