27

Co      0.0250  0.0000  0.0000
Cl      0.0002  -2.2785  -0.2084
Cl      -0.0001  2.2786  0.2085
N       -1.3975  0.1763  -1.3461
N       -1.3975  -0.1764  1.3460
N       1.3566  0.1588  -1.2459
N       1.3565  -0.1585  1.2459
C       -2.8160  0.3950  -0.6920
C       -2.8163  -0.3943  0.6920
C       2.8161  0.3995  -0.6830
C       2.8163  -0.3984  0.6831
H       -1.4388  0.9425  -2.0290
H       -2.8403  1.4594  -0.5432
H       -3.5913  0.1346  -1.4065
H       -3.5868  -0.1335  1.4112
H       -2.8410  -1.4615  0.5432
H       -1.6702  0.6038  1.9807
H       -1.4392  -0.9430  2.0286
H       1.6195  -0.6272  -1.8556
H       1.3570  0.9065  -1.9465
H       3.5458  0.1426  -1.4522
H       2.8503  1.4705  -0.5265
H       2.8512  -1.4694  0.5265
H       3.5457  -0.1410  1.4523
H       1.3572  -0.9066  1.9462
H       1.6190  0.6273  1.8560
H       -1.6750  -0.6041  -1.9804
