27

Co      0.0000  0.0488  0.0034
Cl      0.0002  -2.2678  -0.2101
Cl      -0.0001  2.2005  0.2034
N       -1.3723  0.1639  -1.3199
N       -1.3723  -0.1741  1.3232
N       1.3723  0.1601  -1.3198
N       1.3723  -0.1699  1.3232
C       -2.7903  0.3738  -0.6764
C       -2.7906  -0.3731  0.6730
C       2.7904  0.3738  -0.6765
C       2.7906  -0.3727  0.6733
H       -1.2791  0.9160  -1.9785
H       -2.7504  1.4295  -0.4581
H       -3.6057  0.1919  -1.3629
H       -3.6057  -0.1975  1.3597
H       -2.7511  -1.4315  0.4480
H       -1.2971  0.6634  1.8880
H       -1.2425  -0.9839  1.9073
H       1.2741  -0.7280  -1.7960
H       1.2793  0.9120  -1.9825
H       3.6057  0.1953  -1.3631
H       2.7468  1.4360  -0.4549
H       2.7476  -1.4349  0.4449
H       3.6056  -0.2004  1.3599
H       1.2424  -0.9794  1.9114
H       1.3005  0.6641  1.8839
H       -1.2704  -0.7277  -1.8001
