27

Co      -0.0250  0.0000  0.0000
Cl      0.0002  -2.2946  -0.2123
Cl      -0.0001  2.2947  0.2124
N       -1.5559  0.1541  -1.3158
N       -1.4774  -0.1542  1.2421
N       1.5184  0.1677  -1.3423
N       1.5969  -0.1674  1.4159
C       -2.8607  0.4180  -0.6547
C       -2.8118  -0.4025  0.6351
C       2.8117  0.3986  -0.6443
C       2.8609  -0.4123  0.6640
H       -1.2167  0.8708  -1.9546
H       -2.9230  1.4775  -0.4663
H       -3.7774  0.0941  -1.1537
H       -3.6890  -0.1028  1.1931
H       -2.8746  -1.4621  0.4320
H       -1.4248  0.7251  1.7245
H       -1.1189  -0.8910  1.8511
H       1.4842  -0.7029  -1.8445
H       1.2006  0.9221  -1.9383
H       3.7345  0.0989  -1.1476
H       2.8604  1.4582  -0.4462
H       2.9103  -1.4719  0.4806
H       3.8228  -0.0875  1.1084
H       1.2990  -0.9025  2.0410
H       1.5819  0.7178  1.8890
H       -1.5232  -0.7402  -1.7684
