27

Co      -0.0250  -0.0427  -0.0422
Cl      0.0002  -2.2296  -0.2126
Cl      -0.0001  2.2929  0.2236
N       -1.5274  0.1245  -1.3110
N       -1.5928  -0.1104  1.3444
N       1.5684  0.1418  -1.4111
N       1.6338  -0.1274  1.4446
C       -2.7194  0.4303  -0.5802
C       -2.7687  -0.4500  0.6203
C       2.7194  0.4257  -0.5894
C       2.7686  -0.4450  0.6296
H       -1.2659  0.8732  -1.9351
H       -2.8489  1.4820  -0.3563
H       -3.5438  0.1170  -1.1987
H       -3.6174  -0.0724  1.1818
H       -2.9272  -1.5030  0.4360
H       -1.7718  0.7818  1.7832
H       -1.3401  -0.7696  2.0666
H       1.7890  -0.6691  -1.9944
H       1.3480  0.9085  -2.0180
H       3.5893  0.1083  -1.1534
H       2.8391  1.4709  -0.3744
H       2.9176  -1.4943  0.4540
H       3.6629  -0.0632  1.1364
H       1.4220  -0.8045  2.1497
H       1.8270  0.7597  1.9073
H       -1.7336  -0.6895  -1.8704
