27

Co      -0.0741  0.0000  0.0000
Cl      0.0068  -2.3338  -0.2176
Cl      0.0064  2.3339  0.2177
N       -1.4636  0.1473  -1.3122
N       -1.4636  -0.1474  1.3121
N       1.5307  0.1576  -1.3567
N       1.5307  -0.1573  1.3567
C       -2.7727  0.4025  -0.6401
C       -2.7730  -0.4018  0.6401
C       2.8284  0.4044  -0.6395
C       2.8285  -0.4033  0.6396
H       -1.2614  0.8997  -1.9425
H       -2.8376  1.4572  -0.4361
H       -3.5878  0.1237  -1.2892
H       -3.5878  -0.1226  1.2894
H       -2.8382  -1.4564  0.4361
H       -1.5016  0.7037  1.8363
H       -1.2618  -0.9003  1.9420
H       1.5904  -0.7012  -1.8713
H       1.3828  0.9019  -2.0096
H       3.6660  0.1285  -1.2667
H       2.8894  1.4592  -0.4341
H       2.8902  -1.4581  0.4341
H       3.6659  -0.1270  1.2669
H       1.3829  -0.9019  2.0093
H       1.5899  0.7013  1.8717
H       -1.5019  -0.7041  -1.8360
