27

Co      0.0000  0.0000  0.0000
Cl      0.0002  -2.3410  -0.2176
Cl      -0.0001  2.3411  0.2177
N       -1.5509  0.1266  -1.3966
N       -1.5509  -0.1268  1.3965
N       1.5509  0.1266  -1.3965
N       1.5509  -0.1263  1.3965
C       -2.7956  0.4016  -0.6317
C       -2.7959  -0.4009  0.6317
C       2.7957  0.4016  -0.6319
C       2.7959  -0.4005  0.6319
H       -1.0978  0.9949  -1.8189
H       -2.8512  1.4476  -0.3869
H       -3.6727  0.1421  -1.2067
H       -3.6772  -0.1410  1.2023
H       -2.8518  -1.4469  0.3869
H       -1.3814  0.6951  1.9892
H       -1.0983  -0.9954  1.8184
H       1.3771  -0.6957  -1.9885
H       1.0980  0.9946  -1.8235
H       3.6727  0.1373  -1.2068
H       2.8513  1.4476  -0.3875
H       2.8521  -1.4465  0.3876
H       3.6726  -0.1358  1.2070
H       1.1026  -0.9946  1.8232
H       1.3766  0.6958  1.9888
H       -1.3772  -0.6955  -1.9889
