27

Co      -0.0741  0.0061  -0.0389
Cl      0.0068  -2.2915  -0.2139
Cl      0.0064  2.2875  0.2181
N       -1.4925  0.1425  -1.3392
N       -1.4794  -0.1386  1.3023
N       1.4811  0.1528  -1.3101
N       1.6250  -0.1485  1.4205
C       -2.6975  0.3805  -0.5881
C       -2.6977  -0.3855  0.6053
C       2.7040  0.3677  -0.5679
C       2.8023  -0.4018  0.6244
H       -1.2702  0.9308  -1.9194
H       -2.8461  1.4224  -0.3462
H       -3.4651  0.0759  -1.2840
H       -3.4548  -0.0478  1.2984
H       -2.8754  -1.4287  0.3814
H       -1.3544  0.7452  1.7917
H       -1.2093  -0.9142  1.8772
H       1.3733  -0.7161  -1.8267
H       1.2934  0.9526  -1.8834
H       3.4549  0.0906  -1.3008
H       2.8489  1.4069  -0.3098
H       2.9765  -1.4450  0.4137
H       3.6168  -0.0424  1.2412
H       1.4286  -0.8962  2.0475
H       1.5364  0.7575  1.8712
H       -1.3829  -0.7317  -1.8356
