27

Co      -0.0741  0.0000  0.0000
Cl      0.0068  -2.3448  -0.2251
Cl      0.0064  2.3448  0.2252
N       -1.5039  0.1221  -1.3658
N       -1.5039  -0.1222  1.3657
N       1.5710  0.1362  -1.4103
N       1.5710  -0.1359  1.4104
C       -2.7642  0.4263  -0.6262
C       -2.7644  -0.4256  0.6261
C       2.8198  0.4283  -0.6256
C       2.8200  -0.4272  0.6257
H       -1.3051  0.8477  -2.0281
H       -2.7534  1.4773  -0.3772
H       -3.6281  0.2259  -1.2442
H       -3.6281  -0.2248  1.2443
H       -2.7540  -1.4765  0.3772
H       -1.5729  0.7456  1.8557
H       -1.3055  -0.8482  2.0276
H       1.6580  -0.7431  -1.8943
H       1.4265  0.8536  -2.0915
H       3.7063  0.2270  -1.2217
H       2.8090  1.4755  -0.3789
H       2.8098  -1.4744  0.3789
H       3.7062  -0.2254  1.2218
H       1.4266  -0.8536  2.0911
H       1.6575  0.7431  1.8947
H       -1.5731  -0.7459  -1.8553
