27

Co      0.0000  0.0427  0.0422
Cl      0.0002  -2.3531  -0.2267
Cl      -0.0001  2.2899  0.2159
N       -1.3867  0.1291  -1.2911
N       -1.3998  -0.1434  1.3312
N       1.4653  0.1291  -1.3647
N       1.3213  -0.1430  1.2576
C       -2.7721  0.4358  -0.6706
C       -2.7724  -0.4293  0.6500
C       2.8213  0.4505  -0.6904
C       2.7233  -0.4142  0.6306
H       -1.1688  0.8161  -1.9856
H       -2.8000  1.4897  -0.4542
H       -3.5544  0.1940  -1.3776
H       -3.5692  -0.2267  1.3555
H       -2.7720  -1.4820  0.4089
H       -1.4722  0.6982  1.8699
H       -1.1936  -0.9012  1.9562
H       1.5109  -0.7894  -1.7817
H       1.2672  0.7962  -2.0889
H       3.6428  0.1838  -1.3384
H       2.8492  1.5073  -0.4892
H       2.7232  -1.4669  0.3752
H       3.4807  -0.2356  1.3949
H       1.0953  -0.9200  1.8535
H       1.3737  0.6842  1.8254
H       -1.4128  -0.7764  -1.7379
