27

Co      -0.0741  0.0061  -0.0389
Cl      0.0068  -2.3468  -0.2231
Cl      0.0064  2.3428  0.2273
N       -1.5382  0.1245  -1.3978
N       -1.5251  -0.1205  1.3609
N       1.5268  0.1386  -1.3687
N       1.6707  -0.1342  1.4791
C       -2.7597  0.4328  -0.6092
C       -2.7599  -0.4378  0.6263
C       2.7662  0.4200  -0.5890
C       2.8646  -0.4541  0.6455
H       -1.1360  0.8647  -1.9840
H       -2.7878  1.4730  -0.3203
H       -3.6420  0.2106  -1.1943
H       -3.6318  -0.1825  1.2087
H       -2.8171  -1.4821  0.3554
H       -1.3436  0.8129  1.7673
H       -1.0751  -0.8480  1.9418
H       1.3587  -0.7838  -1.8060
H       1.1592  0.8902  -1.9443
H       3.6318  0.2215  -1.2111
H       2.7943  1.4565  -0.2876
H       2.9219  -1.4947  0.3915
H       3.7938  -0.1733  1.1515
H       1.2944  -0.8338  2.1084
H       1.5218  0.8252  1.8506
H       -1.3721  -0.7994  -1.8112
