27

Co      0.0741  -0.0061  0.0389
Cl      -0.0063  -2.2874  -0.2180
Cl      -0.0067  2.2916  0.2140
N       -1.4721  0.1477  -1.3672
N       -1.4852  -0.1519  1.4039
N       1.4835  0.1373  -1.3962
N       1.3395  -0.1411  1.2857
C       -2.8308  0.4344  -0.6733
C       -2.8310  -0.4279  0.6562
C       2.8243  0.4471  -0.6938
C       2.7263  -0.4108  0.6374
H       -1.2717  0.8755  -2.0190
H       -2.8519  1.4883  -0.4543
H       -3.6471  0.1995  -1.3418
H       -3.6619  -0.2254  1.3231
H       -2.8239  -1.4806  0.4192
H       -1.5596  0.7089  1.9133
H       -1.3335  -0.8932  2.0603
H       1.5367  -0.7393  -1.8770
H       1.2489  0.8531  -2.0555
H       3.6573  0.1840  -1.3253
H       2.8493  1.5039  -0.4920
H       2.7234  -1.4635  0.3882
H       3.4952  -0.2291  1.3852
H       1.1140  -0.9096  1.8907
H       1.3726  0.6980  1.8332
H       -1.5271  -0.7232  -1.8688
