27

Co      0.0000  0.0000  0.0000
Cl      0.0002  -2.3410  -0.2176
Cl      -0.0001  2.3411  0.2177
N       -1.5313  0.1162  -1.3776
N       -1.5313  -0.1163  1.3775
N       1.5313  0.1161  -1.3775
N       1.5313  -0.1159  1.3775
C       -2.7735  0.4014  -0.5733
C       -2.7737  -0.4007  0.5733
C       2.7735  0.4014  -0.5735
C       2.7737  -0.4003  0.5735
H       -1.2646  0.9704  -1.8754
H       -2.9761  1.4532  -0.4110
H       -3.6188  -0.0330  -1.1198
H       -3.6188  0.0341  1.1199
H       -2.9767  -1.4497  0.4110
H       -1.7564  0.6190  2.0814
H       -1.2651  -0.9710  1.8750
H       1.7566  -0.6196  -2.0807
H       1.2648  0.9701  -1.8801
H       3.6188  -0.0378  -1.1171
H       2.9791  1.4504  -0.4116
H       2.9799  -1.4493  0.4116
H       3.6187  0.0394  1.1172
H       1.2694  -0.9702  1.8798
H       1.7561  0.6197  2.0811
H       -1.7567  -0.6194  -2.0811
