27

Co      0.0000  -0.0488  -0.0034
Cl      0.0002  -2.2238  -0.2072
Cl      -0.0001  2.2912  0.2140
N       -1.5095  0.1169  -1.4027
N       -1.5095  -0.1069  1.3993
N       1.5096  0.1168  -1.4027
N       1.5095  -0.1064  1.3993
C       -2.8116  0.4285  -0.5970
C       -2.8118  -0.4278  0.6003
C       2.8116  0.4285  -0.5971
C       2.8118  -0.4274  0.6006
H       -1.1979  0.9913  -1.8653
H       -2.9671  1.4775  -0.4110
H       -3.6393  0.0491  -1.1875
H       -3.6393  -0.0412  1.1910
H       -2.9678  -1.4768  0.4211
H       -1.7263  0.6609  2.0511
H       -1.2354  -0.9246  1.9355
H       1.7534  -0.5976  -2.1379
H       1.1981  0.9910  -1.8700
H       3.6393  0.0443  -1.1847
H       2.9701  1.4775  -0.4117
H       2.9709  -1.4764  0.4218
H       3.6392  -0.0359  1.1883
H       1.2397  -0.9238  1.9403
H       1.7260  0.6616  2.0508
H       -1.7535  -0.5973  -2.1383
