27

Co      0.0000  0.0061  -0.0389
Cl      0.0002  -2.2523  -0.2085
Cl      -0.0001  2.2483  0.2127
N       -1.4708  0.1530  -1.3227
N       -1.5362  -0.1490  1.3594
N       1.4708  0.1529  -1.3226
N       1.5362  -0.1485  1.3594
C       -2.7775  0.3949  -0.6214
C       -2.8268  -0.4147  0.6582
C       2.7775  0.3949  -0.6215
C       2.8268  -0.4143  0.6584
H       -1.3117  0.9179  -1.9536
H       -2.8212  1.4476  -0.3967
H       -3.5966  0.1530  -1.2815
H       -3.6702  -0.1151  1.2612
H       -2.8996  -1.4714  0.4662
H       -1.5901  0.7180  1.8603
H       -1.3490  -0.8816  2.0144
H       1.5249  -0.6920  -1.8596
H       1.3119  0.9176  -1.9538
H       3.5965  0.1526  -1.2816
H       2.8213  1.4476  -0.3973
H       2.8999  -1.4711  0.4669
H       3.6701  -0.1142  1.2613
H       1.3489  -0.8808  2.0148
H       1.5899  0.7187  1.8599
H       -1.5249  -0.6897  -1.8600
