27

Co      0.0250  0.0427  0.0422
Cl      0.0002  -2.3049  -0.2175
Cl      -0.0001  2.2418  0.2067
N       -1.3649  0.1633  -1.3264
N       -1.3781  -0.1776  1.3665
N       1.4025  0.1458  -1.2998
N       1.2585  -0.1597  1.1928
C       -2.7096  0.3743  -0.6769
C       -2.7099  -0.3678  0.6564
C       2.7588  0.3935  -0.6876
C       2.6608  -0.3572  0.6278
H       -1.4270  0.8993  -2.0456
H       -2.7714  1.4435  -0.5505
H       -3.5122  0.0664  -1.3278
H       -3.5224  -0.0990  1.3102
H       -2.7435  -1.4329  0.5053
H       -1.6791  0.5686  2.0502
H       -1.4517  -0.9844  2.0162
H       1.6670  -0.6825  -1.8376
H       1.4434  0.8438  -2.0662
H       3.5550  0.0645  -1.3342
H       2.8305  1.4665  -0.5681
H       2.7046  -1.4261  0.4541
H       3.3930  -0.1163  1.3907
H       1.2715  -0.9676  1.8307
H       1.5298  0.5773  1.8813
H       -1.6242  -0.6468  -1.9182
