27

Co      0.0741  0.0488  0.0034
Cl      -0.0063  -2.3159  -0.2193
Cl      -0.0067  2.2487  0.2126
N       -1.4853  0.1427  -1.3096
N       -1.4853  -0.1530  1.3128
N       1.4182  0.1323  -1.2649
N       1.4181  -0.1421  1.2683
C       -2.7989  0.4086  -0.6363
C       -2.7992  -0.4078  0.6329
C       2.7434  0.4065  -0.6371
C       2.7436  -0.4054  0.6339
H       -1.3485  0.8425  -2.0177
H       -2.8600  1.4633  -0.4286
H       -3.6189  0.1344  -1.2844
H       -3.6189  -0.1401  1.2811
H       -2.8606  -1.4625  0.4185
H       -1.5586  0.6898  1.8548
H       -1.3119  -0.9104  1.9465
H       1.4433  -0.7575  -1.7309
H       1.2275  0.8398  -1.9510
H       3.5406  0.1288  -1.3071
H       2.8083  1.4613  -0.4319
H       2.8092  -1.4602  0.4218
H       3.5406  -0.1339  1.3039
H       1.1906  -0.9072  1.8800
H       1.4697  0.6936  1.8188
H       -1.5319  -0.7541  -1.7669
