27

Co      -0.0741  -0.0488  -0.0034
Cl      0.0068  -2.3111  -0.2217
Cl      0.0064  2.3785  0.2286
N       -1.5316  0.1275  -1.3811
N       -1.5316  -0.1175  1.3776
N       1.5988  0.1416  -1.4256
N       1.5987  -0.1312  1.4222
C       -2.7597  0.4357  -0.6161
C       -2.7599  -0.4350  0.6194
C       2.8153  0.4376  -0.6155
C       2.8155  -0.4365  0.6190
H       -1.0868  0.8897  -1.9278
H       -2.8021  1.4779  -0.3328
H       -3.6346  0.2005  -1.2020
H       -3.6391  -0.1926  1.2010
H       -2.8028  -1.4772  0.3429
H       -1.3465  0.8380  1.7456
H       -1.1243  -0.8230  1.9980
H       1.4540  -0.7715  -1.8718
H       1.2082  0.8956  -1.9912
H       3.7128  0.2016  -1.1795
H       2.8577  1.4762  -0.3345
H       2.8586  -1.4751  0.3446
H       3.7128  -0.1933  1.1830
H       1.2454  -0.8284  2.0616
H       1.4266  0.8356  1.7847
H       -1.3692  -0.7744  -1.8329
