27

Co      0.0000  -0.0061  0.0389
Cl      0.0002  -2.3266  -0.2233
Cl      -0.0001  2.3307  0.2193
N       -1.4757  0.1418  -1.3701
N       -1.4103  -0.1460  1.3332
N       1.4757  0.1417  -1.3701
N       1.4102  -0.1455  1.3333
C       -2.7553  0.4154  -0.6582
C       -2.7064  -0.3942  0.6213
C       2.7553  0.4154  -0.6583
C       2.7064  -0.3938  0.6216
H       -1.2844  0.8704  -2.0256
H       -2.8134  1.4721  -0.4626
H       -3.6061  0.1269  -1.2539
H       -3.5324  -0.1626  1.2745
H       -2.7364  -1.4469  0.3931
H       -1.4641  0.7000  1.8674
H       -1.2480  -0.9077  1.9638
H       1.5298  -0.7272  -1.8667
H       1.2846  0.8701  -2.0258
H       3.6060  0.1265  -1.2540
H       2.8135  1.4722  -0.4633
H       2.7367  -1.4465  0.3938
H       3.5324  -0.1617  1.2746
H       1.2480  -0.9070  1.9641
H       1.4639  0.7007  1.8671
H       -1.5298  -0.7290  -1.8671
