27

Co      -0.0490  -0.0488  -0.0034
Cl      0.0068  -2.3111  -0.2217
Cl      0.0064  2.3785  0.2286
N       -1.5706  0.1323  -1.4143
N       -1.5706  -0.1223  1.4108
N       1.5968  0.1327  -1.3586
N       1.5967  -0.1223  1.3553
C       -2.7231  0.4032  -0.5856
C       -2.7233  -0.4025  0.5890
C       2.7787  0.4097  -0.5759
C       2.7789  -0.4086  0.5794
H       -1.3296  0.9266  -1.9784
H       -2.8155  1.4434  -0.3118
H       -3.5463  0.1520  -1.2341
H       -3.5508  -0.1442  1.2331
H       -2.8161  -1.4399  0.3219
H       -1.4770  0.7939  1.8423
H       -1.3671  -0.8599  2.0486
H       1.5253  -0.7502  -1.8479
H       1.3690  0.9007  -1.9553
H       3.5790  0.1577  -1.2572
H       2.8847  1.4434  -0.2998
H       2.8856  -1.4423  0.3099
H       3.5789  -0.1494  1.2607
H       1.4062  -0.8334  2.0257
H       1.4979  0.8142  1.7607
H       -1.4997  -0.7303  -1.9295
