27

Co      0.0000  -0.0244  -0.0017
Cl      0.0002  -2.2585  -0.2153
Cl      -0.0001  2.2922  0.2188
N       -1.5126  0.1341  -1.3687
N       -1.5126  -0.1291  1.3669
N       1.5126  0.1359  -1.3686
N       1.5126  -0.1305  1.3669
C       -2.7666  0.4217  -0.5986
C       -2.7668  -0.4210  0.6002
C       2.7666  0.4217  -0.5987
C       2.7668  -0.4206  0.6004
H       -1.3102  0.8796  -2.0079
H       -2.8834  1.4731  -0.3909
H       -3.6138  0.0881  -1.1824
H       -3.6138  -0.0836  1.1842
H       -2.8841  -1.4709  0.3960
H       -1.6522  0.7354  1.8628
H       -1.3292  -0.8465  2.0427
H       1.6640  -0.7040  -1.9078
H       1.3104  0.8812  -2.0062
H       3.6138  0.0858  -1.1811
H       2.8869  1.4698  -0.3934
H       2.8877  -1.4687  0.3985
H       3.6137  -0.0809  1.1829
H       1.3291  -0.8476  2.0412
H       1.6501  0.7361  1.8644
H       -1.6659  -0.7038  -1.9063
