27

Co      0.0000  -0.0244  -0.0017
Cl      0.0002  -2.2752  -0.2124
Cl      -0.0001  2.3089  0.2159
N       -1.5142  0.1544  -1.3454
N       -1.5142  -0.1495  1.3436
N       1.5143  0.1543  -1.3453
N       1.5142  -0.1490  1.3436
C       -2.7990  0.4090  -0.6347
C       -2.7992  -0.4083  0.6364
C       2.7991  0.4090  -0.6349
C       2.7992  -0.4079  0.6366
H       -1.2169  0.9212  -1.9299
H       -2.8861  1.4593  -0.4109
H       -3.6334  0.1177  -1.2535
H       -3.6357  -0.1133  1.2531
H       -2.8868  -1.4586  0.4160
H       -1.4385  0.7491  1.8028
H       -1.2359  -0.8881  1.9648
H       1.4499  -0.7177  -1.8458
H       1.2171  0.9209  -1.9302
H       3.6334  0.1174  -1.2536
H       2.8862  1.4594  -0.4115
H       2.8871  -1.4583  0.4166
H       3.6333  -0.1124  1.2555
H       1.2358  -0.8873  1.9652
H       1.4359  0.7498  1.8024
H       -1.4499  -0.7175  -1.8462
