27

Co      0.0370  0.0000  0.0000
Cl      -0.0030  -2.2618  -0.2113
Cl      -0.0034  2.2619  0.2114
N       -1.4489  0.1623  -1.3299
N       -1.4489  -0.1624  1.3298
N       1.4154  0.1551  -1.3075
N       1.4153  -0.1548  1.3076
C       -2.7697  0.3923  -0.6556
C       -2.7699  -0.3916  0.6556
C       2.7420  0.3913  -0.6561
C       2.7422  -0.3902  0.6562
H       -1.3217  0.9083  -1.9907
H       -2.8177  1.4557  -0.4853
H       -3.6332  0.0992  -1.2342
H       -3.6309  -0.0981  1.2366
H       -2.8183  -1.4550  0.4853
H       -1.5743  0.6726  1.8792
H       -1.3221  -0.9089  1.9902
H       1.5344  -0.6748  -1.8588
H       1.2613  0.9049  -1.9593
H       3.5940  0.0981  -1.2457
H       2.7900  1.4566  -0.4854
H       2.7909  -1.4555  0.4854
H       3.5940  -0.0965  1.2458
H       1.2615  -0.9050  1.9590
H       1.5339  0.6749  1.8592
H       -1.5768  -0.6730  -1.8789
