27

Co      0.0000  0.0000  0.0000
Cl      0.0002  -2.2833  -0.2177
Cl      -0.0001  2.2833  0.2178
N       -1.4019  0.1405  -1.3011
N       -1.4411  -0.1406  1.3379
N       1.4412  0.1404  -1.3379
N       1.4018  -0.1401  1.3011
C       -2.7239  0.3989  -0.6367
C       -2.7486  -0.4055  0.6465
C       2.7485  0.4062  -0.6466
C       2.7241  -0.3977  0.6369
H       -1.3311  0.8792  -1.9854
H       -2.7446  1.4579  -0.4349
H       -3.5364  0.1639  -1.3040
H       -3.5782  -0.1579  1.2868
H       -2.7698  -1.4646  0.4521
H       -1.6204  0.6957  1.8782
H       -1.3806  -0.8699  2.0365
H       1.6229  -0.6963  -1.8775
H       1.3804  0.8691  -2.0372
H       3.5805  0.1586  -1.2845
H       2.7693  1.4653  -0.4527
H       2.7456  -1.4568  0.4356
H       3.5363  -0.1619  1.3043
H       1.3314  -0.8790  1.9853
H       1.5733  0.6891  1.8558
H       -1.5739  -0.6887  -1.8558
