27

Co      0.0000  0.0244  0.0017
Cl      0.0002  -2.3037  -0.2194
Cl      -0.0001  2.2701  0.2161
N       -1.4371  0.1428  -1.3474
N       -1.4371  -0.1479  1.3490
N       1.4371  0.1427  -1.3474
N       1.4371  -0.1475  1.3491
C       -2.7337  0.4038  -0.6497
C       -2.7340  -0.4031  0.6479
C       2.7338  0.4037  -0.6498
C       2.7340  -0.4026  0.6482
H       -1.3065  0.8622  -2.0371
H       -2.7413  1.4652  -0.4581
H       -3.6177  0.1500  -1.2164
H       -3.6154  -0.1523  1.2171
H       -2.7419  -1.4645  0.4531
H       -1.5794  0.6810  1.9031
H       -1.2884  -0.8964  2.0013
H       1.5684  -0.7136  -1.8586
H       1.3067  0.8619  -2.0373
H       3.6177  0.1496  -1.2165
H       2.7414  1.4653  -0.4588
H       2.7422  -1.4642  0.4537
H       3.6176  -0.1514  1.2150
H       1.2883  -0.8956  2.0016
H       1.5814  0.6817  1.9027
H       -1.5685  -0.7133  -1.8590
