27

Co      0.0000  0.0244  0.0017
Cl      0.0002  -2.3259  -0.2203
Cl      -0.0001  2.2923  0.2170
N       -1.4350  0.1439  -1.3499
N       -1.4350  -0.1491  1.3515
N       1.4350  0.1439  -1.3498
N       1.4350  -0.1486  1.3515
C       -2.7691  0.4156  -0.6623
C       -2.7694  -0.4149  0.6606
C       2.7692  0.4155  -0.6624
C       2.7693  -0.4144  0.6608
H       -1.2903  0.8599  -2.0387
H       -2.7615  1.4757  -0.4649
H       -3.6375  0.1784  -1.2595
H       -3.6353  -0.1807  1.2603
H       -2.7621  -1.4763  0.4599
H       -1.5747  0.6818  1.9030
H       -1.2722  -0.8942  2.0029
H       1.5637  -0.7144  -1.8586
H       1.2905  0.8596  -2.0390
H       3.6375  0.1780  -1.2597
H       2.7616  1.4771  -0.4655
H       2.7624  -1.4760  0.4605
H       3.6375  -0.1798  1.2582
H       1.2721  -0.8934  2.0033
H       1.5767  0.6825  1.9027
H       -1.5638  -0.7141  -1.8589
