27

Co      0.0000  0.0000  0.0000
Cl      0.0002  -2.3055  -0.2186
Cl      -0.0001  2.3055  0.2187
N       -1.4242  0.1441  -1.3220
N       -1.4242  -0.1442  1.3219
N       1.4242  0.1440  -1.3220
N       1.4242  -0.1437  1.3220
C       -2.7715  0.4168  -0.6591
C       -2.7717  -0.4161  0.6591
C       2.7716  0.4167  -0.6592
C       2.7717  -0.4156  0.6593
H       -1.2667  0.8672  -2.0007
H       -2.7699  1.4769  -0.4600
H       -3.6268  0.1777  -1.2719
H       -3.6245  -0.1766  1.2743
H       -2.7705  -1.4775  0.4600
H       -1.5548  0.7050  1.8453
H       -1.2671  -0.8678  2.0002
H       1.5573  -0.7056  -1.8445
H       1.2669  0.8669  -2.0009
H       3.6267  0.1773  -1.2720
H       2.7700  1.4783  -0.4606
H       2.7708  -1.4772  0.4607
H       3.6267  -0.1757  1.2722
H       1.2670  -0.8670  2.0006
H       1.5568  0.7057  1.8449
H       -1.5573  -0.7053  -1.8449
