27

Co      0.0370  0.0000  0.0000
Cl      -0.0030  -2.2850  -0.2140
Cl      -0.0034  2.2850  0.2141
N       -1.4445  0.1629  -1.3613
N       -1.4445  -0.1630  1.3612
N       1.4110  0.1557  -1.3389
N       1.4109  -0.1555  1.3389
C       -2.7495  0.3911  -0.6580
C       -2.7497  -0.3904  0.6580
C       2.7218  0.3901  -0.6585
C       2.7219  -0.3890  0.6586
H       -1.3200  0.9152  -2.0137
H       -2.7879  1.4545  -0.4868
H       -3.6279  0.1043  -1.2193
H       -3.6256  -0.1032  1.2217
H       -2.7886  -1.4538  0.4868
H       -1.5723  0.6681  1.9169
H       -1.3205  -0.9158  2.0132
H       1.5324  -0.6703  -1.8965
H       1.2596  0.9118  -1.9823
H       3.5887  0.1032  -1.2307
H       2.7603  1.4554  -0.4869
H       2.7611  -1.4543  0.4869
H       3.5887  -0.1016  1.2309
H       1.2598  -0.9119  1.9820
H       1.5319  0.6704  1.8969
H       -1.5749  -0.6685  -1.9166
