27

Co      0.0125  0.0000  0.0000
Cl      0.0002  -2.2673  -0.2151
Cl      -0.0001  2.2673  0.2152
N       -1.4441  0.1513  -1.3791
N       -1.4441  -0.1514  1.3790
N       1.4236  0.1443  -1.3289
N       1.4236  -0.1441  1.3289
C       -2.7763  0.3980  -0.6616
C       -2.7766  -0.3973  0.6616
C       2.7764  0.4003  -0.6572
C       2.7766  -0.3992  0.6572
H       -1.3488  0.8948  -2.0511
H       -2.7067  1.4581  -0.4447
H       -3.6802  0.2198  -1.2353
H       -3.6780  -0.2187  1.2378
H       -2.7074  -1.4588  0.4447
H       -1.5259  0.6993  1.9057
H       -1.3492  -0.8954  2.0507
H       1.4988  -0.7113  -1.8447
H       1.3080  0.8786  -2.0081
H       3.6574  0.2217  -1.2582
H       2.7137  1.4618  -0.4385
H       2.7145  -1.4607  0.4385
H       3.6574  -0.2201  1.2584
H       1.3082  -0.8786  2.0078
H       1.4983  0.7114  1.8451
H       -1.5284  -0.6997  -1.9054
