27

Co      -0.0125  -0.0213  -0.0211
Cl      0.0002  -2.2958  -0.2141
Cl      -0.0001  2.3275  0.2196
N       -1.4639  0.1458  -1.3312
N       -1.4574  -0.1388  1.3110
N       1.4452  0.1525  -1.3443
N       1.5171  -0.1452  1.3979
C       -2.7949  0.4040  -0.6095
C       -2.7951  -0.4062  0.6197
C       2.7704  0.3943  -0.6043
C       2.8196  -0.4108  0.6343
H       -1.2942  0.9078  -1.9625
H       -2.8710  1.4548  -0.3946
H       -3.6179  0.1127  -1.2443
H       -3.6105  -0.0947  1.2556
H       -2.8859  -1.4590  0.4173
H       -1.5111  0.7336  1.8045
H       -1.2825  -0.8661  1.9765
H       1.5217  -0.6776  -1.9079
H       1.2863  0.9333  -1.9544
H       3.5964  0.1149  -1.2399
H       2.8411  1.4452  -0.3849
H       2.9054  -1.4638  0.4419
H       3.6774  -0.0866  1.2119
H       1.3724  -0.8715  2.0716
H       1.5895  0.7303  1.8866
H       -1.5412  -0.6950  -1.8700
