27

Co      0.0000  0.0000  0.0000
Cl      0.0002  -2.2894  -0.2159
Cl      -0.0001  2.2895  0.2160
N       -1.4915  0.1454  -1.3532
N       -1.4915  -0.1455  1.3531
N       1.4915  0.1453  -1.3531
N       1.4914  -0.1450  1.3531
C       -2.7576  0.4271  -0.6377
C       -2.7579  -0.4264  0.6377
C       2.7577  0.4271  -0.6379
C       2.7578  -0.4260  0.6379
H       -1.1550  0.8875  -1.9528
H       -2.8914  1.4775  -0.4294
H       -3.5765  0.0888  -1.2561
H       -3.5787  -0.0877  1.2540
H       -2.8921  -1.4768  0.4294
H       -1.4833  0.7327  1.8394
H       -1.1554  -0.8881  1.9523
H       1.4813  -0.7333  -1.8386
H       1.1552  0.8872  -1.9530
H       3.5765  0.0884  -1.2562
H       2.8915  1.4775  -0.4300
H       2.8924  -1.4764  0.4301
H       3.5764  -0.0869  1.2564
H       1.1553  -0.8873  1.9527
H       1.4808  0.7334  1.8390
H       -1.4813  -0.7331  -1.8390
