27

Co      0.0000  0.0244  0.0017
Cl      0.0002  -2.2786  -0.2130
Cl      -0.0001  2.2450  0.2097
N       -1.4137  0.1579  -1.3264
N       -1.4137  -0.1631  1.3279
N       1.4137  0.1560  -1.3263
N       1.4137  -0.1607  1.3280
C       -2.7806  0.3872  -0.6671
C       -2.7808  -0.3865  0.6654
C       2.7807  0.3872  -0.6673
C       2.7808  -0.3861  0.6657
H       -1.3157  0.8960  -2.0044
H       -2.7522  1.4492  -0.4733
H       -3.6487  0.1682  -1.2701
H       -3.6464  -0.1704  1.2708
H       -2.7529  -1.4499  0.4682
H       -1.4822  0.6681  1.8872
H       -1.2976  -0.9302  1.9686
H       1.4731  -0.7007  -1.8409
H       1.3159  0.8939  -2.0065
H       3.6487  0.1697  -1.2702
H       2.7505  1.4525  -0.4720
H       2.7513  -1.4514  0.4670
H       3.6486  -0.1715  1.2687
H       1.2975  -0.9276  1.9708
H       1.4860  0.6688  1.8850
H       -1.4712  -0.7004  -1.8431
