27

Co      -0.0245  -0.0244  -0.0017
Cl      0.0035  -2.2530  -0.2116
Cl      0.0031  2.2867  0.2150
N       -1.4814  0.1484  -1.3710
N       -1.4814  -0.1435  1.3692
N       1.4945  0.1467  -1.3431
N       1.4945  -0.1413  1.3414
C       -2.7795  0.4082  -0.6143
C       -2.7797  -0.4075  0.6160
C       2.8073  0.4115  -0.6095
C       2.8075  -0.4104  0.6113
H       -1.1937  0.9223  -1.9502
H       -2.8811  1.4557  -0.3895
H       -3.6239  0.0921  -1.2083
H       -3.6261  -0.0876  1.2079
H       -2.8817  -1.4550  0.3946
H       -1.4260  0.7505  1.8369
H       -1.2127  -0.8892  1.9851
H       1.4522  -0.7289  -1.8374
H       1.2136  0.9073  -1.9407
H       3.6402  0.0966  -1.2185
H       2.9153  1.4590  -0.3820
H       2.9161  -1.4579  0.3871
H       3.6402  -0.0917  1.2203
H       1.2322  -0.8737  1.9757
H       1.4382  0.7610  1.7940
H       -1.4375  -0.7188  -1.8803
