27

Co      0.0000  0.0000  0.0000
Cl      0.0002  -2.3171  -0.2205
Cl      -0.0001  2.3172  0.2206
N       -1.5340  0.1351  -1.3925
N       -1.4947  -0.1352  1.3555
N       1.4948  0.1369  -1.3556
N       1.5340  -0.1366  1.3924
C       -2.7892  0.4222  -0.6287
C       -2.7649  -0.4141  0.6188
C       2.7647  0.4148  -0.6190
C       2.7894  -0.4210  0.6289
H       -1.3293  0.8757  -2.0310
H       -2.8422  1.4682  -0.3820
H       -3.6111  0.1795  -1.2857
H       -3.5692  -0.1833  1.3032
H       -2.8183  -1.4601  0.3648
H       -1.4775  0.7409  1.8469
H       -1.2806  -0.8860  1.9790
H       1.4736  -0.7415  -1.8480
H       1.2804  0.8870  -1.9778
H       3.5669  0.1822  -1.3055
H       2.8197  1.4590  -0.3673
H       2.8450  -1.4653  0.3845
H       3.6110  -0.1757  1.2860
H       1.3296  -0.8773  2.0290
H       1.5222  0.7490  1.8705
H       -1.5246  -0.7486  -1.8687
