27

Co      0.0370  0.0244  0.0017
Cl      -0.0030  -2.3008  -0.2138
Cl      -0.0034  2.2672  0.2106
N       -1.4223  0.1585  -1.3131
N       -1.4616  -0.1637  1.3515
N       1.4280  0.1513  -1.3276
N       1.3887  -0.1561  1.2925
C       -2.7928  0.3981  -0.6594
C       -2.8176  -0.4047  0.6675
C       2.7896  0.4044  -0.6697
C       2.7653  -0.3959  0.6582
H       -1.3629  0.8990  -1.9963
H       -2.8329  1.4576  -0.4763
H       -3.5824  0.1405  -1.3535
H       -3.6243  -0.1379  1.3346
H       -2.8581  -1.4656  0.4884
H       -1.6373  0.6490  1.9339
H       -1.3940  -0.9234  2.0120
H       1.5839  -0.6832  -1.8698
H       1.3516  0.8858  -2.0165
H       3.5875  0.1345  -1.3453
H       2.8298  1.4673  -0.4936
H       2.8061  -1.4588  0.4714
H       3.5432  -0.1412  1.3634
H       1.2842  -0.9294  1.9293
H       1.5478  0.6439  1.8918
H       -1.5772  -0.6740  -1.8678
