27

Co      0.0370  -0.0031  0.0194
Cl      -0.0030  -2.2848  -0.2169
Cl      -0.0034  2.2869  0.2150
N       -1.4956  0.1466  -1.3380
N       -1.4629  -0.1487  1.3195
N       1.4621  0.1413  -1.3157
N       1.4293  -0.1431  1.2973
C       -2.7949  0.4120  -0.6464
C       -2.7706  -0.4010  0.6280
C       2.7672  0.4109  -0.6469
C       2.7428  -0.3996  0.6286
H       -1.3232  0.8760  -2.0013
H       -2.8581  1.4677  -0.4440
H       -3.6285  0.1297  -1.2701
H       -3.5917  -0.1470  1.2804
H       -2.8199  -1.4547  0.4092
H       -1.5198  0.7082  1.8374
H       -1.3053  -0.8949  1.9702
H       1.5084  -0.7237  -1.8189
H       1.2628  0.8744  -1.9681
H       3.5894  0.1267  -1.2815
H       2.8323  1.4667  -0.4460
H       2.7943  -1.4534  0.4112
H       3.5525  -0.1435  1.2919
H       1.2446  -0.8929  1.9371
H       1.4752  0.7105  1.8193
H       -1.5527  -0.7229  -1.8371
