27

Co      -0.0245  0.0000  0.0000
Cl      0.0035  -2.3135  -0.2205
Cl      0.0031  2.3136  0.2206
N       -1.5203  0.1352  -1.3508
N       -1.5203  -0.1353  1.3507
N       1.5334  0.1353  -1.3229
N       1.5334  -0.1351  1.3229
C       -2.7406  0.4251  -0.6181
C       -2.7409  -0.4244  0.6181
C       2.7685  0.4283  -0.6134
C       2.7686  -0.4272  0.6134
H       -1.1928  0.8683  -1.9649
H       -2.8672  1.4750  -0.4000
H       -3.5835  0.0931  -1.2081
H       -3.5857  -0.0920  1.2060
H       -2.8679  -1.4728  0.4000
H       -1.5219  0.7483  1.8259
H       -1.1932  -0.8689  1.9644
H       1.5327  -0.7587  -1.7845
H       1.2126  0.8552  -1.9534
H       3.5998  0.0957  -1.2197
H       2.9019  1.4750  -0.3943
H       2.9027  -1.4739  0.3944
H       3.5997  -0.0941  1.2198
H       1.2128  -0.8553  1.9531
H       1.5322  0.7588  1.7849
H       -1.5199  -0.7486  -1.8256
