27

Co      0.0370  0.0000  0.0000
Cl      -0.0030  -2.3072  -0.2148
Cl      -0.0034  2.3072  0.2149
N       -1.4320  0.1630  -1.3369
N       -1.4713  -0.1631  1.3736
N       1.4377  0.1559  -1.3514
N       1.3984  -0.1556  1.3146
C       -2.7543  0.3842  -0.6482
C       -2.7791  -0.3908  0.6580
C       2.7511  0.3905  -0.6585
C       2.7267  -0.3821  0.6488
H       -1.3802  0.9284  -1.9932
H       -2.8060  1.4451  -0.4710
H       -3.5701  0.1121  -1.2997
H       -3.6120  -0.1061  1.2825
H       -2.8312  -1.4518  0.4882
H       -1.6427  0.6562  1.9455
H       -1.4297  -0.9191  2.0443
H       1.6027  -0.6584  -1.9251
H       1.3689  0.9152  -2.0134
H       3.5751  0.1060  -1.2915
H       2.8029  1.4534  -0.4883
H       2.7792  -1.4449  0.4712
H       3.5309  -0.1093  1.3113
H       1.3199  -0.9251  1.9615
H       1.5531  0.6512  1.9034
H       -1.5961  -0.6492  -1.9231
