27

Co      0.0370  -0.0031  0.0194
Cl      -0.0030  -2.2884  -0.2169
Cl      -0.0034  2.2905  0.2150
N       -1.4727  0.1476  -1.3568
N       -1.4792  -0.1497  1.3751
N       1.4784  0.1423  -1.3712
N       1.4064  -0.1440  1.3160
C       -2.7986  0.4198  -0.6566
C       -2.7988  -0.4162  0.6480
C       2.7954  0.4261  -0.6668
C       2.7465  -0.4074  0.6387
H       -1.2849  0.8848  -2.0043
H       -2.8346  1.4741  -0.4420
H       -3.6242  0.1697  -1.3048
H       -3.6316  -0.1821  1.2955
H       -2.8210  -1.4699  0.4244
H       -1.5434  0.7089  1.8886
H       -1.3160  -0.8939  2.0247
H       1.5320  -0.7244  -1.8701
H       1.2736  0.8735  -2.0226
H       3.6293  0.1618  -1.2966
H       2.8334  1.4819  -0.4612
H       2.7708  -1.4612  0.4093
H       3.5482  -0.1835  1.3266
H       1.2062  -0.9018  1.9401
H       1.4497  0.7039  1.8483
H       -1.5273  -0.7163  -1.8662
