27

Co      -0.0125  0.0000  0.0000
Cl      0.0002  -2.2920  -0.2141
Cl      -0.0001  2.2921  0.2142
N       -1.5040  0.1485  -1.3195
N       -1.5040  -0.1486  1.3194
N       1.5245  0.1552  -1.3695
N       1.5244  -0.1549  1.3695
C       -2.7990  0.4101  -0.6333
C       -2.7992  -0.4094  0.6333
C       2.7991  0.4078  -0.6380
C       2.7992  -0.4067  0.6381
H       -1.2057  0.8964  -1.9260
H       -2.8896  1.4605  -0.4100
H       -3.6221  0.1172  -1.2657
H       -3.6243  -0.1161  1.2636
H       -2.8902  -1.4598  0.4100
H       -1.4304  0.7388  1.7939
H       -1.2061  -0.8970  1.9255
H       1.4580  -0.7280  -1.8535
H       1.2469  0.9121  -1.9695
H       3.6448  0.1145  -1.2431
H       2.8828  1.4582  -0.4175
H       2.8837  -1.4571  0.4175
H       3.6447  -0.1130  1.2432
H       1.2470  -0.9121  1.9691
H       1.4575  0.7281  1.8539
H       -1.4284  -0.7392  -1.7936
