27

Co      0.0000  0.0244  0.0017
Cl      0.0002  -2.2982  -0.2157
Cl      -0.0001  2.2646  0.2124
N       -1.4029  0.1540  -1.3290
N       -1.4029  -0.1591  1.3306
N       1.4029  0.1520  -1.3290
N       1.4029  -0.1568  1.3307
C       -2.7563  0.4045  -0.6693
C       -2.7565  -0.4038  0.6676
C       2.7564  0.4045  -0.6694
C       2.7565  -0.4034  0.6678
H       -1.2565  0.8826  -2.0027
H       -2.7805  1.4665  -0.4918
H       -3.6046  0.1341  -1.2770
H       -3.6023  -0.1364  1.2777
H       -2.7812  -1.4672  0.4868
H       -1.5297  0.6643  1.8976
H       -1.2384  -0.9168  1.9669
H       1.5206  -0.6969  -1.8513
H       1.2567  0.8804  -2.0048
H       3.6046  0.1356  -1.2771
H       2.7788  1.4698  -0.4906
H       2.7796  -1.4687  0.4855
H       3.6045  -0.1374  1.2756
H       1.2383  -0.9141  1.9692
H       1.5336  0.6650  1.8954
H       -1.5187  -0.6966  -1.8536
