27

Co      0.0370  -0.0031  0.0194
Cl      -0.0030  -2.3044  -0.2196
Cl      -0.0034  2.3065  0.2177
N       -1.4805  0.1448  -1.3407
N       -1.4478  -0.1470  1.3222
N       1.4469  0.1395  -1.3184
N       1.4142  -0.1413  1.3000
C       -2.7771  0.4120  -0.6464
C       -2.7528  -0.4010  0.6280
C       2.7494  0.4109  -0.6469
C       2.7250  -0.3996  0.6286
H       -1.3072  0.8733  -2.0040
H       -2.8367  1.4677  -0.4431
H       -3.6125  0.1323  -1.2683
H       -3.5756  -0.1496  1.2787
H       -2.7985  -1.4547  0.4083
H       -1.5046  0.7109  1.8392
H       -1.2892  -0.8922  1.9728
H       1.4933  -0.7264  -1.8207
H       1.2468  0.8718  -1.9708
H       3.5733  0.1293  -1.2797
H       2.8109  1.4667  -0.4451
H       2.7729  -1.4534  0.4103
H       3.5365  -0.1462  1.2901
H       1.2285  -0.8902  1.9398
H       1.4600  0.7132  1.8211
H       -1.5376  -0.7256  -1.8389
