27

Co      0.0370  0.0244  0.0017
Cl      -0.0030  -2.3223  -0.2203
Cl      -0.0034  2.2887  0.2170
N       -1.4306  0.1431  -1.3055
N       -1.4699  -0.1483  1.3439
N       1.4363  0.1378  -1.3199
N       1.3970  -0.1426  1.2848
C       -2.7548  0.3985  -0.6373
C       -2.7796  -0.4052  0.6454
C       2.7517  0.4048  -0.6476
C       2.7273  -0.3964  0.6362
H       -1.3826  0.8664  -2.0130
H       -2.7806  1.4576  -0.4393
H       -3.5687  0.1567  -1.3043
H       -3.6106  -0.1541  1.2854
H       -2.8058  -1.4642  0.4515
H       -1.6587  0.6755  1.9053
H       -1.4136  -0.8908  2.0287
H       1.6034  -0.7097  -1.8430
H       1.3713  0.8550  -2.0313
H       3.5738  0.1488  -1.2961
H       2.7794  1.4639  -0.4585
H       2.7557  -1.4555  0.4363
H       3.5295  -0.1555  1.3142
H       1.3038  -0.8986  1.9441
H       1.5673  0.6705  1.8650
H       -1.5987  -0.7005  -1.8391
