27

Co      0.0000  0.0000  0.0000
Cl      0.0002  -2.2734  -0.2132
Cl      -0.0001  2.2735  0.2133
N       -1.5188  0.1516  -1.3908
N       -1.4795  -0.1517  1.3539
N       1.4795  0.1515  -1.3540
N       1.5188  -0.1512  1.3908
C       -2.7941  0.4077  -0.6471
C       -2.7697  -0.3996  0.6372
C       2.7696  0.4003  -0.6374
C       2.7943  -0.4065  0.6473
H       -1.3530  0.9015  -2.0330
H       -2.8426  1.4624  -0.4415
H       -3.6502  0.1372  -1.2465
H       -3.6060  -0.1410  1.2663
H       -2.8187  -1.4543  0.4244
H       -1.5309  0.6955  1.8869
H       -1.3044  -0.9118  1.9810
H       1.5311  -0.6961  -1.8862
H       1.3041  0.9110  -1.9817
H       3.6060  0.1417  -1.2663
H       2.8182  1.4550  -0.4250
H       2.8436  -1.4613  0.4422
H       3.6501  -0.1352  1.2468
H       1.3534  -0.9012  2.0329
H       1.5797  0.7035  1.9087
H       -1.5802  -0.7032  -1.9087
