27

Co      0.0000  -0.0244  -0.0017
Cl      0.0002  -2.2762  -0.2142
Cl      -0.0001  2.3099  0.2177
N       -1.5024  0.1515  -1.3675
N       -1.5024  -0.1466  1.3657
N       1.5024  0.1515  -1.3674
N       1.5024  -0.1461  1.3658
C       -2.7392  0.4086  -0.6308
C       -2.7394  -0.4079  0.6325
C       2.7393  0.4085  -0.6309
C       2.7394  -0.4074  0.6327
H       -1.2881  0.9154  -1.9795
H       -2.8615  1.4647  -0.4447
H       -3.5770  0.0721  -1.2243
H       -3.5769  -0.0676  1.2261
H       -2.8621  -1.4626  0.4498
H       -1.6103  0.7071  1.8823
H       -1.3071  -0.8822  2.0143
H       1.6240  -0.6757  -1.9253
H       1.2883  0.9151  -1.9797
H       3.5769  0.0717  -1.2244
H       2.8616  1.4633  -0.4454
H       2.8624  -1.4622  0.4505
H       3.5769  -0.0668  1.2263
H       1.3070  -0.8815  2.0147
H       1.6100  0.7078  1.8819
H       -1.6240  -0.6755  -1.9257
