27

Co      -0.0125  0.0000  0.0000
Cl      0.0002  -2.2920  -0.2141
Cl      -0.0001  2.2921  0.2142
N       -1.4901  0.1483  -1.3127
N       -1.4901  -0.1484  1.3126
N       1.5106  0.1551  -1.3627
N       1.5106  -0.1548  1.3627
C       -2.8013  0.4055  -0.6375
C       -2.8015  -0.4047  0.6375
C       2.8013  0.4031  -0.6422
C       2.8015  -0.4020  0.6422
H       -1.3056  0.8922  -1.9585
H       -2.8652  1.4602  -0.4297
H       -3.6188  0.1316  -1.2860
H       -3.6187  -0.1305  1.2861
H       -2.8658  -1.4594  0.4297
H       -1.5369  0.7086  1.8271
H       -1.3060  -0.8928  1.9580
H       1.5667  -0.6978  -1.8867
H       1.3467  0.9079  -2.0019
H       3.6415  0.1289  -1.2633
H       2.8585  1.4579  -0.4372
H       2.8593  -1.4568  0.4372
H       3.6414  -0.1273  1.2635
H       1.3469  -0.9079  2.0016
H       1.5662  0.6979  1.8870
H       -1.5371  -0.7089  -1.8267
