27

Co      0.0125  -0.0031  0.0194
Cl      0.0002  -2.2858  -0.2187
Cl      -0.0001  2.2879  0.2168
N       -1.4531  0.1454  -1.3709
N       -1.4597  -0.1476  1.3892
N       1.4719  0.1385  -1.3575
N       1.3999  -0.1403  1.3023
C       -2.7315  0.4063  -0.6463
C       -2.7317  -0.4027  0.6377
C       2.7561  0.4159  -0.6517
C       2.7072  -0.3972  0.6236
H       -1.2752  0.8917  -2.0103
H       -2.7767  1.4620  -0.4384
H       -3.5802  0.1416  -1.2541
H       -3.5875  -0.1540  1.2448
H       -2.7630  -1.4564  0.4208
H       -1.5256  0.7059  1.9117
H       -1.3064  -0.9008  2.0307
H       1.5289  -0.7312  -1.8506
H       1.2836  0.8657  -2.0188
H       3.6016  0.1385  -1.2574
H       2.8081  1.4717  -0.4494
H       2.7456  -1.4510  0.3975
H       3.5205  -0.1603  1.2874
H       1.2162  -0.8940  1.9362
H       1.4466  0.7106  1.8289
H       -1.5095  -0.7132  -1.8893
