27

Co      0.0370  -0.0031  0.0194
Cl      -0.0030  -2.2662  -0.2161
Cl      -0.0034  2.2683  0.2141
N       -1.4748  0.1464  -1.3543
N       -1.4814  -0.1486  1.3726
N       1.4805  0.1411  -1.3688
N       1.4085  -0.1429  1.3136
C       -2.7632  0.4080  -0.6439
C       -2.7634  -0.4044  0.6353
C       2.7600  0.4143  -0.6542
C       2.7111  -0.3956  0.6260
H       -1.3011  0.8870  -2.0027
H       -2.8144  1.4637  -0.4352
H       -3.6044  0.1413  -1.2616
H       -3.6117  -0.1537  1.2523
H       -2.8007  -1.4580  0.4177
H       -1.5481  0.7081  1.8886
H       -1.3322  -0.8962  2.0231
H       1.5367  -0.7236  -1.8701
H       1.2898  0.8757  -2.0210
H       3.6094  0.1334  -1.2534
H       2.8132  1.4701  -0.4544
H       2.7506  -1.4493  0.4025
H       3.5284  -0.1552  1.2834
H       1.2224  -0.9040  1.9385
H       1.4544  0.7031  1.8484
H       -1.5320  -0.7154  -1.8662
