27

Co      0.0245  0.0000  0.0000
Cl      -0.0030  -2.2859  -0.2159
Cl      -0.0034  2.2859  0.2160
N       -1.4690  0.1442  -1.3038
N       -1.4690  -0.1443  1.3037
N       1.4560  0.1457  -1.3315
N       1.4559  -0.1454  1.3315
C       -2.7827  0.4080  -0.6349
C       -2.7829  -0.4073  0.6349
C       2.7549  0.4047  -0.6399
C       2.7551  -0.4036  0.6400
H       -1.2935  0.8772  -1.9643
H       -2.8421  1.4627  -0.4232
H       -3.5987  0.1400  -1.2866
H       -3.5987  -0.1389  1.2867
H       -2.8427  -1.4620  0.4232
H       -1.5213  0.7211  1.8067
H       -1.2940  -0.8777  1.9639
H       1.5068  -0.7119  -1.8485
H       1.2741  0.8916  -1.9744
H       3.5824  0.1347  -1.2753
H       2.8095  1.4595  -0.4320
H       2.8103  -1.4584  0.4320
H       3.5823  -0.1331  1.2754
H       1.2743  -0.8917  1.9740
H       1.5063  0.7120  1.8489
H       -1.5216  -0.7214  -1.8064
