27

Co      0.0245  0.0000  0.0000
Cl      -0.0030  -2.2833  -0.2177
Cl      -0.0034  2.2833  0.2178
N       -1.4419  0.1398  -1.3124
N       -1.4419  -0.1400  1.3123
N       1.4289  0.1414  -1.3402
N       1.4288  -0.1411  1.3402
C       -2.7478  0.4089  -0.6349
C       -2.7480  -0.4081  0.6349
C       2.7201  0.4055  -0.6399
C       2.7202  -0.4044  0.6400
H       -1.2656  0.8711  -1.9738
H       -2.7976  1.4636  -0.4197
H       -3.5699  0.1495  -1.2797
H       -3.5699  -0.1484  1.2798
H       -2.7983  -1.4628  0.4197
H       -1.4968  0.7271  1.8127
H       -1.2660  -0.8717  1.9734
H       1.4823  -0.7180  -1.8545
H       1.2461  0.8855  -1.9839
H       3.5535  0.1442  -1.2684
H       2.7651  1.4603  -0.4285
H       2.7659  -1.4592  0.4286
H       3.5535  -0.1426  1.2685
H       1.2463  -0.8856  1.9835
H       1.4818  0.7181  1.8549
H       -1.4970  -0.7275  -1.8124
