27

Co      0.0370  0.0000  0.0000
Cl      -0.0030  -2.2840  -0.2122
Cl      -0.0034  2.2840  0.2123
N       -1.4565  0.1670  -1.3239
N       -1.4565  -0.1671  1.3238
N       1.4230  0.1599  -1.3016
N       1.4229  -0.1596  1.3016
C       -2.7933  0.3742  -0.6534
C       -2.7935  -0.3735  0.6534
C       2.7656  0.3732  -0.6539
C       2.7657  -0.3721  0.6540
H       -1.3769  0.9225  -1.9881
H       -2.7910  1.4376  -0.4684
H       -3.6740  0.1291  -1.2307
H       -3.6718  -0.1280  1.2331
H       -2.7917  -1.4368  0.4684
H       -1.5211  0.6757  1.8663
H       -1.3773  -0.9231  1.9877
H       1.4811  -0.6779  -1.8459
H       1.3165  0.9191  -1.9568
H       3.6349  0.1280  -1.2422
H       2.7634  1.4385  -0.4685
H       2.7642  -1.4374  0.4685
H       3.6348  -0.1264  1.2423
H       1.3166  -0.9192  1.9565
H       1.4806  0.6780  1.8463
H       -1.5236  -0.6760  -1.8660
