27

Co      -0.0370  -0.0244  -0.0017
Cl      0.0035  -2.2771  -0.2162
Cl      0.0031  2.3108  0.2196
N       -1.5238  0.1189  -1.3463
N       -1.4845  -0.1140  1.3077
N       1.5181  0.1259  -1.3317
N       1.5574  -0.1206  1.3669
C       -2.7977  0.4185  -0.6234
C       -2.7734  -0.4104  0.6152
C       2.8010  0.4120  -0.6133
C       2.8257  -0.4183  0.6249
H       -1.2649  0.9182  -1.9072
H       -2.8369  1.4645  -0.3720
H       -3.6057  0.1947  -1.3032
H       -3.5637  -0.1952  1.3224
H       -2.8130  -1.4564  0.3599
H       -1.4617  0.7356  1.8420
H       -1.2347  -0.8949  1.8905
H       1.5156  -0.7027  -1.9048
H       1.2766  0.9308  -1.8897
H       3.6006  0.1978  -1.3117
H       2.8402  1.4563  -0.3559
H       2.8656  -1.4625  0.3782
H       3.6447  -0.1879  1.2939
H       1.3465  -0.8874  1.9762
H       1.5507  0.7421  1.8835
H       -1.5222  -0.7114  -1.9076
