27

Co      0.0000  0.0427  0.0422
Cl      0.0002  -2.2695  -0.2196
Cl      -0.0001  2.2063  0.2089
N       -1.4116  0.1255  -1.2808
N       -1.4247  -0.1398  1.3209
N       1.4901  0.1255  -1.3544
N       1.3461  -0.1394  1.2473
C       -2.7370  0.4073  -0.6356
C       -2.7372  -0.4009  0.6150
C       2.7862  0.4220  -0.6553
C       2.6881  -0.3857  0.5956
H       -1.3788  0.8356  -2.0013
H       -2.8168  1.4592  -0.4230
H       -3.4498  0.1562  -1.4258
H       -3.4645  -0.1888  1.4037
H       -2.7889  -1.4486  0.3777
H       -1.5846  0.6670  1.9101
H       -1.4036  -0.9207  1.9719
H       1.6234  -0.7582  -1.8219
H       1.4772  0.8157  -2.1046
H       3.5382  0.1460  -1.3867
H       2.8660  1.4739  -0.4580
H       2.7401  -1.4336  0.3440
H       3.3761  -0.1978  1.4432
H       1.3053  -0.9395  1.8691
H       1.4862  0.6530  1.8656
H       -1.5252  -0.7452  -1.7781
