27

Co      0.0741  0.0000  0.0000
Cl      -0.0063  -2.2894  -0.2159
Cl      -0.0067  2.2895  0.2160
N       -1.5068  0.1526  -1.3687
N       -1.5068  -0.1527  1.3686
N       1.4397  0.1421  -1.3240
N       1.4397  -0.1418  1.3241
C       -2.7942  0.4062  -0.6394
C       -2.7944  -0.4055  0.6394
C       2.7386  0.4041  -0.6402
C       2.7388  -0.4030  0.6403
H       -1.3587  0.8953  -2.0230
H       -2.8432  1.4609  -0.4283
H       -3.6404  0.1426  -1.2564
H       -3.6404  -0.1415  1.2565
H       -2.8439  -1.4601  0.4283
H       -1.5714  0.7074  1.8828
H       -1.3591  -0.8959  2.0225
H       1.4831  -0.7112  -1.8464
H       1.2377  0.8926  -1.9564
H       3.5622  0.1369  -1.2791
H       2.7916  1.4589  -0.4316
H       2.7924  -1.4578  0.4317
H       3.5621  -0.1354  1.2793
H       1.2378  -0.8927  1.9560
H       1.4825  0.7113  1.8468
H       -1.5717  -0.7078  -1.8825
