27

Co      0.0741  -0.0061  0.0389
Cl      -0.0063  -2.2358  -0.2162
Cl      -0.0067  2.2400  0.2123
N       -1.3902  0.1418  -1.3081
N       -1.4034  -0.1460  1.3449
N       1.4017  0.1313  -1.3371
N       1.2576  -0.1351  1.2267
C       -2.8189  0.3945  -0.6726
C       -2.8191  -0.3881  0.6554
C       2.8125  0.4072  -0.6931
C       2.7145  -0.3710  0.6367
H       -1.5052  0.8627  -2.0656
H       -2.6744  1.4572  -0.4449
H       -3.6496  0.3106  -1.3811
H       -3.6598  -0.3365  1.3670
H       -2.6464  -1.4495  0.4098
H       -1.6021  0.6826  1.8991
H       -1.5670  -0.8805  2.1069
H       1.5837  -0.7130  -1.8627
H       1.4824  0.8404  -2.1021
H       3.6597  0.2951  -1.3646
H       2.6719  1.4728  -0.4826
H       2.5459  -1.4324  0.3788
H       3.4977  -0.3402  1.4245
H       1.3476  -0.8969  1.9373
H       1.4196  0.6718  1.8189
H       -1.5742  -0.6969  -1.8546
