27

Co      0.0250  0.0488  0.0034
Cl      0.0002  -2.3159  -0.2193
Cl      -0.0001  2.2487  0.2126
N       -1.4329  0.1444  -1.3006
N       -1.5115  -0.1546  1.3775
N       1.4705  0.1306  -1.2740
N       1.3919  -0.1405  1.2037
C       -2.7466  0.3979  -0.6314
C       -2.7959  -0.4119  0.6477
C       2.7958  0.4172  -0.6421
C       2.7468  -0.4013  0.6191
H       -1.2798  0.8671  -1.9760
H       -2.8027  1.4526  -0.4196
H       -3.5584  0.1344  -1.2926
H       -3.6467  -0.1302  1.2501
H       -2.8525  -1.4666  0.4439
H       -1.5930  0.6873  1.9194
H       -1.3414  -0.9153  2.0079
H       1.5071  -0.7747  -1.7105
H       1.2962  0.8153  -1.9928
H       3.6012  0.1288  -1.2990
H       2.8656  1.4719  -0.4409
H       2.8173  -1.4561  0.3965
H       3.5128  -0.1438  1.3350
H       1.1611  -0.9023  1.8187
H       1.4353  0.6961  1.7542
H       -1.4681  -0.7369  -1.7874
