27

Co      0.0000  0.0000  0.0000
Cl      0.0002  -2.3018  -0.2123
Cl      -0.0001  2.3019  0.2124
N       -1.5204  0.1523  -1.3980
N       -1.5204  -0.1524  1.3979
N       1.5204  0.1522  -1.3979
N       1.5203  -0.1519  1.3979
C       -2.8542  0.4011  -0.5988
C       -2.8545  -0.4004  0.5988
C       2.8543  0.4010  -0.5989
C       2.8545  -0.3999  0.5990
H       -1.3799  0.9197  -2.0284
H       -2.9581  1.4501  -0.3956
H       -3.7034  0.0657  -1.1865
H       -3.7034  -0.0646  1.1867
H       -2.9587  -1.4493  0.3956
H       -1.6111  0.6882  1.9407
H       -1.3803  -0.9203  2.0279
H       1.6113  -0.6888  -1.9400
H       1.3801  0.9194  -2.0286
H       3.7034  0.0653  -1.1838
H       2.9611  1.4501  -0.3962
H       2.9619  -1.4490  0.3962
H       3.7033  -0.0637  1.1840
H       1.3802  -0.9195  2.0283
H       1.6108  0.6889  1.9403
H       -1.6113  -0.6885  -1.9404
