27

Co      0.0000  0.0000  0.0000
Cl      0.0002  -2.3056  -0.2198
Cl      -0.0001  2.3056  0.2199
N       -1.6226  0.1249  -1.3794
N       -1.6226  -0.1250  1.3793
N       1.6226  0.1285  -1.3794
N       1.6226  -0.1282  1.3794
C       -2.7735  0.4410  -0.5867
C       -2.7737  -0.4403  0.5867
C       2.7736  0.4410  -0.5868
C       2.7737  -0.4399  0.5869
H       -1.3134  0.8620  -1.9900
H       -2.9903  1.4812  -0.3493
H       -3.5386  0.0748  -1.2681
H       -3.5431  -0.0737  1.2637
H       -2.9910  -1.4777  0.3493
H       -1.6608  0.7534  1.8573
H       -1.3138  -0.8625  1.9895
H       1.6527  -0.7540  -1.8603
H       1.3136  0.8654  -1.9865
H       3.5385  0.0706  -1.2683
H       2.9942  1.4747  -0.3537
H       2.9950  -1.4736  0.3537
H       3.5385  -0.0691  1.2684
H       1.3137  -0.8655  1.9861
H       1.6522  0.7541  1.8607
H       -1.6565  -0.7538  -1.8570
