27

Co      -0.0741  0.0061  -0.0389
Cl      0.0068  -2.2952  -0.2214
Cl      0.0064  2.2912  0.2255
N       -1.4645  0.1085  -1.3333
N       -1.4514  -0.1045  1.2964
N       1.4531  0.1226  -1.3042
N       1.5971  -0.1182  1.4147
C       -2.7211  0.4022  -0.5417
C       -2.7213  -0.4072  0.5588
C       2.7277  0.3894  -0.5215
C       2.8260  -0.4235  0.5780
H       -1.3366  0.8358  -2.0222
H       -2.7840  1.4482  -0.2955
H       -3.5971  0.1178  -1.1062
H       -3.5823  -0.0897  1.1251
H       -2.8133  -1.4545  0.3307
H       -1.5481  0.7710  1.7790
H       -1.2757  -0.8192  1.9800
H       1.5678  -0.7419  -1.8177
H       1.3598  0.8614  -1.9825
H       3.5869  0.1287  -1.1201
H       2.7934  1.4289  -0.2628
H       2.9210  -1.4671  0.3668
H       3.7489  -0.0805  1.0605
H       1.4950  -0.8050  2.1466
H       1.7309  0.7833  1.8623
H       -1.5812  -0.7574  -1.8229
