27

Co      0.0000  -0.0488  -0.0034
Cl      0.0002  -2.2719  -0.2164
Cl      -0.0001  2.3393  0.2232
N       -1.5774  0.1408  -1.3845
N       -1.5774  -0.1308  1.3810
N       1.5774  0.1444  -1.3844
N       1.5774  -0.1341  1.3810
C       -2.8276  0.4321  -0.6338
C       -2.8278  -0.4314  0.6372
C       2.8277  0.4321  -0.6340
C       2.8278  -0.4310  0.6374
H       -1.2337  0.8782  -1.9966
H       -2.8074  1.4880  -0.3920
H       -3.7963  0.2023  -1.1038
H       -3.7962  -0.1944  1.1073
H       -2.8081  -1.4872  0.4021
H       -1.5613  0.7949  1.7836
H       -1.2712  -0.8114  2.0668
H       1.5847  -0.7315  -1.8742
H       1.2339  0.8817  -1.9931
H       3.7962  0.1981  -1.1040
H       2.8113  1.4842  -0.3964
H       2.8121  -1.4831  0.4065
H       3.7962  -0.1898  1.1075
H       1.2711  -0.8144  2.0635
H       1.5572  0.7956  1.7871
H       -1.5884  -0.7313  -1.8709
