27

Co      0.0000  0.0488  0.0034
Cl      0.0002  -2.3070  -0.2154
Cl      -0.0001  2.2397  0.2088
N       -1.3788  0.1588  -1.3083
N       -1.3788  -0.1691  1.3116
N       1.3788  0.1550  -1.3083
N       1.3788  -0.1648  1.3117
C       -2.7051  0.3830  -0.6554
C       -2.7054  -0.3823  0.6520
C       2.7052  0.3830  -0.6555
C       2.7054  -0.3819  0.6522
H       -1.2169  0.9003  -1.9583
H       -2.8127  1.4415  -0.4867
H       -3.5034  0.0534  -1.3006
H       -3.5034  -0.0590  1.2974
H       -2.8133  -1.4408  0.4766
H       -1.4202  0.6473  1.9004
H       -1.1803  -0.9682  1.8871
H       1.3973  -0.7119  -1.8084
H       1.2171  0.8963  -1.9623
H       3.5034  0.0567  -1.3008
H       2.8090  1.4453  -0.4836
H       2.8099  -1.4442  0.4735
H       3.5033  -0.0619  1.2975
H       1.1802  -0.9637  1.8912
H       1.4237  0.6480  1.8963
H       -1.3936  -0.7116  -1.8125
