27

Co      0.0000  0.0000  0.0000
Cl      0.0002  -2.2341  -0.2067
Cl      -0.0001  2.2342  0.2068
N       -1.3420  0.1671  -1.2543
N       -1.4206  -0.1672  1.3278
N       1.4206  0.1633  -1.3279
N       1.3420  -0.1630  1.2542
C       -2.7207  0.3663  -0.6523
C       -2.7701  -0.3803  0.6719
C       2.7699  0.3810  -0.6720
C       2.7210  -0.3652  0.6525
H       -1.3811  0.9408  -1.9310
H       -2.7821  1.4335  -0.5057
H       -3.4847  0.0851  -1.3626
H       -3.5685  -0.0742  1.3280
H       -2.8319  -1.4475  0.5400
H       -1.6991  0.6209  1.9414
H       -1.4798  -0.9217  2.0336
H       1.7076  -0.6215  -1.9369
H       1.4795  0.9171  -2.0381
H       3.5730  0.0786  -1.3235
H       2.8276  1.4520  -0.5369
H       2.7793  -1.4361  0.5026
H       3.4846  -0.0869  1.3629
H       1.3815  -0.9368  1.9346
H       1.6089  0.6069  1.8931
H       -1.6057  -0.6065  -1.8969
