27

Co      0.0000  0.0488  0.0034
Cl      0.0002  -2.2750  -0.2101
Cl      -0.0001  2.2077  0.2034
N       -1.4028  0.1669  -1.3468
N       -1.4028  -0.1771  1.3501
N       1.4029  0.1630  -1.3468
N       1.4028  -0.1728  1.3502
C       -2.7405  0.3713  -0.6686
C       -2.7407  -0.3706  0.6652
C       2.7406  0.3712  -0.6687
C       2.7407  -0.3701  0.6654
H       -1.4775  0.9164  -2.0586
H       -2.7899  1.4384  -0.5327
H       -3.5504  0.0816  -1.3184
H       -3.5459  -0.0872  1.3197
H       -2.7906  -1.4377  0.5226
H       -1.6898  0.5672  2.0348
H       -1.4409  -0.9843  1.9874
H       1.6713  -0.6318  -1.9429
H       1.4776  0.9124  -2.0625
H       3.5504  0.0849  -1.3185
H       2.7863  1.4422  -0.5296
H       2.7871  -1.4411  0.5195
H       3.5503  -0.0901  1.3153
H       1.4408  -0.9798  1.9915
H       1.6978  0.5679  2.0308
H       -1.6676  -0.6315  -1.9470
