27

Co      0.0000  0.0427  0.0422
Cl      0.0002  -2.3087  -0.2250
Cl      -0.0001  2.2455  0.2142
N       -1.3506  0.1676  -1.2869
N       -1.3637  -0.1819  1.3270
N       1.4291  0.1675  -1.3605
N       1.2851  -0.1814  1.2534
C       -2.7282  0.4024  -0.7249
C       -2.7284  -0.3960  0.7043
C       2.7773  0.4171  -0.7446
C       2.6793  -0.3808  0.6849
H       -1.4870  0.7619  -2.1885
H       -2.5814  1.4708  -0.5086
H       -3.5379  0.3302  -1.4636
H       -3.5481  -0.3628  1.4461
H       -2.5534  -1.4630  0.4633
H       -1.5103  0.7050  1.7819
H       -1.5118  -0.8469  2.1591
H       1.5536  -0.7961  -1.6937
H       1.5854  0.7419  -2.2874
H       3.6262  0.3244  -1.4273
H       2.6277  1.4883  -0.5436
H       2.5018  -1.4480  0.4296
H       3.4641  -0.3762  1.4839
H       1.4091  -0.8658  2.0519
H       1.4164  0.6910  1.7374
H       -1.4554  -0.7832  -1.6499
