27

Co      0.0000  0.0000  0.0000
Cl      0.0002  -2.2379  -0.2142
Cl      -0.0001  2.2379  0.2143
N       -1.4051  0.1679  -1.3098
N       -1.4051  -0.1681  1.3097
N       1.4051  0.1679  -1.3097
N       1.4050  -0.1676  1.3097
C       -2.7455  0.3787  -0.6254
C       -2.7458  -0.3780  0.6254
C       2.7456  0.3787  -0.6255
C       2.7458  -0.3776  0.6256
H       -1.5305  0.8331  -2.1282
H       -2.7474  1.4286  -0.3747
H       -3.4957  0.2067  -1.4018
H       -3.4956  -0.2056  1.4020
H       -2.7481  -1.4278  0.3748
H       -1.4073  0.7720  1.6986
H       -1.5309  -0.8336  2.1278
H       1.4076  -0.7726  -1.6979
H       1.5307  0.8328  -2.1240
H       3.4956  0.2107  -1.4020
H       2.7475  1.4286  -0.3754
H       2.7484  -1.4275  0.3754
H       3.4956  -0.2092  1.4021
H       1.5264  -0.8328  2.1237
H       1.4071  0.7727  1.6983
H       -1.4076  -0.7724  -1.6983
