27

Co      -0.0490  0.0000  0.0000
Cl      0.0068  -2.2966  -0.2159
Cl      0.0064  2.2967  0.2160
N       -1.4817  0.1538  -1.4316
N       -1.4817  -0.1539  1.4315
N       1.5079  0.1505  -1.3760
N       1.5078  -0.1502  1.3760
C       -2.7338  0.3995  -0.6495
C       -2.7340  -0.3988  0.6494
C       2.7894  0.4060  -0.6398
C       2.7896  -0.4049  0.6399
H       -1.3072  0.9280  -2.0401
H       -2.7679  1.4542  -0.4426
H       -3.6065  0.1398  -1.2299
H       -3.6065  -0.1387  1.2301
H       -2.7686  -1.4535  0.4426
H       -1.5387  0.6848  1.9781
H       -1.3076  -0.9285  2.0396
H       1.5684  -0.7051  -1.8924
H       1.3466  0.8983  -2.0207
H       3.6392  0.1492  -1.2530
H       2.8334  1.4608  -0.4269
H       2.8342  -1.4597  0.4269
H       3.6391  -0.1477  1.2531
H       1.3468  -0.8983  2.0203
H       1.5679  0.7052  1.8928
H       -1.5390  -0.6852  -1.9778
