27

Co      0.0250  -0.0061  0.0389
Cl      0.0002  -2.2393  -0.2088
Cl      -0.0001  2.2434  0.2048
N       -1.4041  0.2178  -1.3945
N       -1.4172  -0.2220  1.4312
N       1.4417  0.2003  -1.3679
N       1.2977  -0.2041  1.2575
C       -2.7627  0.3715  -0.7512
C       -2.7630  -0.3651  0.7341
C       2.8119  0.3907  -0.7619
C       2.7139  -0.3545  0.7055
H       -1.5553  0.9071  -2.1867
H       -2.6680  1.4436  -0.5806
H       -3.5955  0.2333  -1.4352
H       -3.6057  -0.2592  1.4210
H       -2.6401  -1.4359  0.5455
H       -1.5381  0.6497  1.9203
H       -1.6171  -0.9248  2.2280
H       1.5528  -0.6996  -1.7952
H       1.5717  0.8516  -2.2029
H       3.6383  0.2358  -1.4444
H       2.7243  1.4695  -0.5982
H       2.5983  -1.4291  0.4944
H       3.4762  -0.2808  1.5043
H       1.4325  -0.9081  2.0381
H       1.3887  0.6584  1.7514
H       -1.5101  -0.6639  -1.8758
