27

Co      -0.0250  0.0000  0.0000
Cl      0.0002  -2.2612  -0.2181
Cl      -0.0001  2.2612  0.2182
N       -1.5601  0.1174  -1.3277
N       -1.5601  -0.1175  1.3276
N       1.6011  0.1348  -1.4278
N       1.6011  -0.1345  1.4279
C       -2.7439  0.4405  -0.6002
C       -2.7441  -0.4398  0.6002
C       2.7440  0.4359  -0.6095
C       2.7441  -0.4348  0.6095
H       -1.3028  0.8211  -2.0011
H       -2.8877  1.4943  -0.3961
H       -3.5806  0.0952  -1.1902
H       -3.5806  -0.0941  1.1904
H       -2.8884  -1.4907  0.3962
H       -1.7526  0.7355  1.8270
H       -1.3032  -0.8217  2.0006
H       1.8082  -0.7133  -1.9506
H       1.3849  0.8565  -2.0841
H       3.6261  0.0865  -1.1448
H       2.8779  1.4832  -0.4142
H       2.8788  -1.4821  0.4142
H       3.6261  -0.0850  1.1450
H       1.3851  -0.8565  2.0837
H       1.8077  0.7134  1.9510
H       -1.7528  -0.7358  -1.8266
