27

Co      -0.0741  0.0000  0.0000
Cl      0.0068  -2.2540  -0.2181
Cl      0.0064  2.2541  0.2182
N       -1.4887  0.1158  -1.3150
N       -1.4887  -0.1159  1.3149
N       1.5559  0.1298  -1.3595
N       1.5558  -0.1295  1.3595
C       -2.7705  0.4304  -0.6214
C       -2.7707  -0.4297  0.6214
C       2.8261  0.4324  -0.6208
C       2.8263  -0.4313  0.6209
H       -1.2845  0.8271  -1.9958
H       -2.7668  1.4814  -0.3691
H       -3.6130  0.2294  -1.2638
H       -3.6130  -0.2283  1.2640
H       -2.7674  -1.4806  0.3691
H       -1.5581  0.7614  1.7889
H       -1.2850  -0.8276  1.9953
H       1.6432  -0.7589  -1.8275
H       1.4059  0.8329  -2.0591
H       3.6912  0.2305  -1.2413
H       2.8224  1.4796  -0.3708
H       2.8232  -1.4785  0.3708
H       3.6911  -0.2289  1.2415
H       1.4061  -0.8330  2.0588
H       1.6427  0.7590  1.8279
H       -1.5583  -0.7618  -1.7885
