27

Co      0.0000  -0.0488  -0.0034
Cl      0.0002  -2.2558  -0.2125
Cl      -0.0001  2.3232  0.2194
N       -1.5145  0.1199  -1.3223
N       -1.5145  -0.1100  1.3189
N       1.5145  0.1199  -1.3223
N       1.5145  -0.1095  1.3189
C       -2.7212  0.4055  -0.6126
C       -2.7215  -0.4048  0.6160
C       2.7213  0.4055  -0.6128
C       2.7214  -0.4044  0.6162
H       -1.1964  0.9838  -1.7959
H       -2.8781  1.4631  -0.4418
H       -3.5488  0.0393  -1.2028
H       -3.5487  -0.0315  1.2063
H       -2.8787  -1.4595  0.4519
H       -1.6893  0.6664  1.9573
H       -1.2338  -0.9171  1.8661
H       1.7164  -0.6031  -2.0441
H       1.1966  0.9835  -1.8006
H       3.5487  0.0345  -1.2030
H       2.8782  1.4603  -0.4424
H       2.8790  -1.4592  0.4525
H       3.5487  -0.0262  1.2065
H       1.2382  -0.9163  1.8709
H       1.6890  0.6672  1.9569
H       -1.7164  -0.6028  -2.0445
