27

Co      0.0000  0.0000  0.0000
Cl      0.0002  -2.2341  -0.2067
Cl      -0.0001  2.2342  0.2068
N       -1.3628  0.1692  -1.3080
N       -1.3628  -0.1693  1.3079
N       1.3629  0.1653  -1.3079
N       1.3628  -0.1650  1.3080
C       -2.7819  0.4039  -0.6971
C       -2.7821  -0.4032  0.6971
C       2.7820  0.4038  -0.6973
C       2.7821  -0.4027  0.6974
H       -1.2284  0.9100  -1.9752
H       -2.7865  1.4731  -0.5507
H       -3.6400  0.1263  -1.2881
H       -3.6354  -0.1252  1.2928
H       -2.7872  -1.4752  0.5507
H       -1.5491  0.6462  1.8841
H       -1.2289  -0.9105  1.9747
H       1.5576  -0.6469  -1.8797
H       1.2286  0.9060  -1.9792
H       3.6399  0.1297  -1.2882
H       2.7829  1.4796  -0.5476
H       2.7837  -1.4785  0.5476
H       3.6399  -0.1281  1.2884
H       1.2288  -0.9060  1.9788
H       1.5571  0.6470  1.8800
H       -1.5539  -0.6466  -1.8838
