27

Co      0.0000  -0.0488  -0.0034
Cl      0.0002  -2.3111  -0.2217
Cl      -0.0001  2.3785  0.2286
N       -1.6316  0.1263  -1.4233
N       -1.5530  -0.1164  1.3462
N       1.5531  0.1300  -1.3496
N       1.6316  -0.1196  1.4199
C       -2.7624  0.4484  -0.5948
C       -2.7136  -0.4330  0.5786
C       2.7134  0.4336  -0.5753
C       2.7627  -0.4473  0.5984
H       -1.3119  0.8805  -2.0115
H       -2.9721  1.4886  -0.3597
H       -3.5507  0.0786  -1.2432
H       -3.4668  -0.0806  1.2815
H       -2.9237  -1.4703  0.3354
H       -1.5679  0.7834  1.7950
H       -1.2512  -0.8334  1.9786
H       1.5868  -0.7200  -1.8856
H       1.2139  0.9036  -1.9049
H       3.4623  0.0843  -1.2826
H       2.9269  1.4673  -0.3297
H       2.9768  -1.4810  0.3742
H       3.5506  -0.0661  1.2469
H       1.3493  -0.8167  2.0784
H       1.6576  0.7988  1.8426
H       -1.6888  -0.7345  -1.9264
