27

Co      0.0000  0.0488  0.0034
Cl      0.0002  -2.2716  -0.2176
Cl      -0.0001  2.2043  0.2109
N       -1.4097  0.1369  -1.2857
N       -1.4097  -0.1472  1.2889
N       1.4098  0.1369  -1.2856
N       1.4097  -0.1467  1.2890
C       -2.7415  0.4047  -0.6548
C       -2.7418  -0.4040  0.6514
C       2.7416  0.4047  -0.6549
C       2.7418  -0.4036  0.6516
H       -1.3182  0.8164  -2.0386
H       -2.7247  1.4730  -0.4836
H       -3.6446  0.1500  -1.1950
H       -3.6401  -0.1556  1.1963
H       -2.7253  -1.4723  0.4735
H       -1.6357  0.6620  1.8670
H       -1.2816  -0.8843  1.9674
H       1.6135  -0.7266  -1.7787
H       1.3184  0.8161  -2.0388
H       3.6446  0.1496  -1.1951
H       2.7248  1.4730  -0.4842
H       2.7256  -1.4719  0.4742
H       3.6445  -0.1547  1.1919
H       1.2816  -0.8835  1.9678
H       1.6399  0.6627  1.8666
H       -1.6135  -0.7263  -1.7791
