27

Co      0.0250  0.0000  0.0000
Cl      0.0002  -2.3286  -0.2213
Cl      -0.0001  2.3287  0.2214
N       -1.4242  0.1507  -1.3650
N       -1.5027  -0.1508  1.4385
N       1.4618  0.1369  -1.3384
N       1.3832  -0.1366  1.2648
C       -2.7062  0.3955  -0.6345
C       -2.7555  -0.4096  0.6541
C       2.7554  0.4148  -0.6452
C       2.7064  -0.3989  0.6256
H       -1.2579  0.9145  -1.9866
H       -2.7432  1.4502  -0.4175
H       -3.5478  0.1479  -1.2610
H       -3.6362  -0.1370  1.2219
H       -2.7930  -1.4642  0.4519
H       -1.5755  0.7103  1.9510
H       -1.3565  -0.8954  2.0892
H       1.5166  -0.7337  -1.8296
H       1.2743  0.8627  -2.0035
H       3.5906  0.1423  -1.2674
H       2.8061  1.4695  -0.4389
H       2.7578  -1.4537  0.4045
H       3.5022  -0.1505  1.3068
H       1.1763  -0.8824  1.9000
H       1.4179  0.7191  1.7858
H       -1.4776  -0.6959  -1.9065
