27

Co      0.0490  0.0000  0.0000
Cl      -0.0063  -2.3286  -0.2213
Cl      -0.0067  2.3287  0.2214
N       -1.4560  0.1422  -1.3240
N       -1.4560  -0.1423  1.3239
N       1.4299  0.1454  -1.3795
N       1.4299  -0.1451  1.3795
C       -2.7585  0.4084  -0.6349
C       -2.7588  -0.4077  0.6348
C       2.7030  0.4019  -0.6448
C       2.7032  -0.4008  0.6449
H       -1.2856  0.8741  -1.9851
H       -2.8073  1.4631  -0.4197
H       -3.5856  0.1502  -1.2756
H       -3.5856  -0.1491  1.2757
H       -2.8079  -1.4624  0.4197
H       -1.5116  0.7241  1.8249
H       -1.2861  -0.8746  1.9846
H       1.4824  -0.7051  -1.9092
H       1.2466  0.9032  -2.0050
H       3.5529  0.1400  -1.2528
H       2.7420  1.4566  -0.4367
H       2.7428  -1.4555  0.4367
H       3.5528  -0.1384  1.2530
H       1.2467  -0.9033  2.0046
H       1.4819  0.7052  1.9096
H       -1.5118  -0.7245  -1.8246
