27

Co      0.0000  -0.0488  -0.0034
Cl      0.0002  -2.2275  -0.2147
Cl      -0.0001  2.2949  0.2215
N       -1.5900  0.1291  -1.3931
N       -1.5900  -0.1191  1.3896
N       1.5901  0.1328  -1.3930
N       1.5900  -0.1224  1.3897
C       -2.7523  0.4082  -0.5807
C       -2.7526  -0.4075  0.5840
C       2.7524  0.4081  -0.5808
C       2.7526  -0.4070  0.5843
H       -1.3574  0.9104  -1.9769
H       -2.8448  1.4484  -0.3003
H       -3.5691  0.1652  -1.2389
H       -3.5736  -0.1574  1.2379
H       -2.8455  -1.4449  0.3104
H       -1.5032  0.8052  1.8048
H       -1.3949  -0.8437  2.0472
H       1.5221  -0.7419  -1.8953
H       1.3576  0.9139  -1.9734
H       3.5691  0.1611  -1.2390
H       2.8487  1.4418  -0.3046
H       2.8495  -1.4407  0.3148
H       3.5690  -0.1528  1.2426
H       1.3948  -0.8466  2.0438
H       1.4947  0.8059  1.8082
H       -1.5259  -0.7416  -1.8920
