27

Co      0.0741  0.0000  0.0000
Cl      -0.0063  -2.2785  -0.2084
Cl      -0.0067  2.2786  0.2085
N       -1.4117  0.1838  -1.3183
N       -1.4117  -0.1839  1.3182
N       1.3446  0.1696  -1.2737
N       1.3445  -0.1693  1.2737
C       -2.8568  0.3686  -0.6925
C       -2.8570  -0.3679  0.6925
C       2.8013  0.3666  -0.6933
C       2.8014  -0.3655  0.6934
H       -1.3993  0.9397  -2.0036
H       -2.7591  1.4378  -0.5156
H       -3.7609  0.1887  -1.2697
H       -3.7563  -0.1877  1.2744
H       -2.7597  -1.4399  0.5156
H       -1.4868  0.6508  1.8773
H       -1.3998  -0.9402  2.0031
H       1.4067  -0.6546  -1.8372
H       1.2783  0.9332  -1.9407
H       3.6826  0.1869  -1.2925
H       2.7037  1.4424  -0.5151
H       2.7045  -1.4413  0.5152
H       3.6825  -0.1853  1.2927
H       1.2785  -0.9332  1.9404
H       1.4062  0.6547  1.8375
H       -1.4916  -0.6512  -1.8769
