27

Co      0.0741  0.0488  0.0034
Cl      -0.0063  -2.3070  -0.2154
Cl      -0.0067  2.2397  0.2088
N       -1.3182  0.1701  -1.2971
N       -1.3967  -0.1803  1.3740
N       1.3296  0.1559  -1.3261
N       1.2510  -0.1657  1.2559
C       -2.7625  0.3629  -0.6843
C       -2.8118  -0.3769  0.7006
C       2.7561  0.3756  -0.7048
C       2.7071  -0.3598  0.6819
H       -1.3128  0.9036  -2.0064
H       -2.6457  1.4321  -0.4965
H       -3.6590  0.2093  -1.2773
H       -3.7428  -0.2051  1.2393
H       -2.6954  -1.4489  0.5208
H       -1.5003  0.6384  1.9552
H       -1.3744  -0.9519  2.0383
H       1.3933  -0.7061  -1.8276
H       1.2900  0.8775  -2.0466
H       3.6691  0.1976  -1.2608
H       2.6394  1.4514  -0.5305
H       2.5912  -1.4356  0.4860
H       3.5807  -0.2126  1.2968
H       1.1549  -0.9645  1.8725
H       1.3215  0.6275  1.8713
H       -1.3800  -0.6880  -1.8232
