27

Co      0.0490  0.0488  0.0034
Cl      -0.0063  -2.3623  -0.2246
Cl      -0.0067  2.2950  0.2180
N       -1.4560  0.1371  -1.3223
N       -1.4560  -0.1474  1.3255
N       1.4299  0.1403  -1.3778
N       1.4299  -0.1501  1.3812
C       -2.7585  0.4084  -0.6365
C       -2.7588  -0.4077  0.6332
C       2.7030  0.4019  -0.6465
C       2.7032  -0.4008  0.6432
H       -1.3041  0.8404  -2.0205
H       -2.8073  1.4631  -0.4248
H       -3.5856  0.1468  -1.2773
H       -3.5856  -0.1525  1.2740
H       -2.8079  -1.4624  0.4147
H       -1.5250  0.6922  1.8687
H       -1.2675  -0.9083  1.9493
H       1.4689  -0.7371  -1.8654
H       1.2651  0.8695  -2.0403
H       3.5529  0.1366  -1.2545
H       2.7420  1.4566  -0.4417
H       2.7428  -1.4555  0.4317
H       3.5528  -0.1418  1.2513
H       1.2282  -0.9369  1.9693
H       1.4953  0.6733  1.9533
H       -1.4983  -0.7565  -1.7808
