27

Co      -0.0741  0.0061  -0.0389
Cl      0.0068  -2.2987  -0.2139
Cl      0.0064  2.2946  0.2181
N       -1.4775  0.1539  -1.3999
N       -1.4644  -0.1499  1.3630
N       1.4661  0.1642  -1.3708
N       1.6100  -0.1598  1.4813
C       -2.7338  0.4038  -0.6460
C       -2.7340  -0.4088  0.6632
C       2.7404  0.3910  -0.6258
C       2.8387  -0.4251  0.6823
H       -1.1514  0.9109  -1.9934
H       -2.7459  1.4613  -0.4376
H       -3.6881  0.1313  -1.1123
H       -3.6733  -0.1033  1.1313
H       -2.7751  -1.4704  0.4728
H       -1.4200  0.7274  1.8509
H       -1.0905  -0.8943  1.9512
H       1.4434  -0.6983  -1.8858
H       1.1746  0.9327  -1.9575
H       3.6779  0.1460  -1.1291
H       2.7486  1.4486  -0.4012
H       2.8763  -1.4867  0.5051
H       3.8399  -0.0978  1.0695
H       1.3097  -0.8763  2.1216
H       1.6065  0.7397  1.9304
H       -1.4530  -0.7139  -1.8948
