27

Co      0.0000  -0.0061  0.0389
Cl      0.0002  -2.3157  -0.2158
Cl      -0.0001  2.3198  0.2118
N       -1.3499  0.1687  -1.2830
N       -1.3630  -0.1729  1.3197
N       1.4285  0.1649  -1.3566
N       1.2844  -0.1687  1.2461
C       -2.7804  0.4050  -0.7057
C       -2.7806  -0.3986  0.6885
C       2.8296  0.4197  -0.7255
C       2.7315  -0.3834  0.6691
H       -1.1896  0.9029  -1.9460
H       -2.8041  1.4763  -0.5716
H       -3.6261  0.1045  -1.3042
H       -3.6363  -0.1304  1.2900
H       -2.7762  -1.4685  0.5365
H       -1.5539  0.6378  1.9012
H       -1.2514  -0.9206  1.9873
H       1.6279  -0.6650  -1.8968
H       1.2879  0.8792  -2.0531
H       3.7145  0.0981  -1.2651
H       2.8496  1.4976  -0.6028
H       2.7236  -1.4572  0.4990
H       3.5524  -0.1431  1.3249
H       1.1531  -0.9357  1.8883
H       1.4638  0.6238  1.8530
H       -1.5260  -0.6521  -1.8567
