27

Co      0.0000  0.0000  0.0000
Cl      0.0002  -2.2843  -0.2195
Cl      -0.0001  2.2843  0.2196
N       -1.4010  0.1432  -1.3501
N       -1.4010  -0.1433  1.3500
N       1.4010  0.1431  -1.3501
N       1.4010  -0.1429  1.3501
C       -2.7011  0.4024  -0.6579
C       -2.7014  -0.4016  0.6578
C       2.7012  0.4023  -0.6580
C       2.7013  -0.4012  0.6581
H       -1.2964  0.8639  -2.0493
H       -2.6652  1.4706  -0.4815
H       -3.6341  0.1635  -1.1634
H       -3.6295  -0.1624  1.1681
H       -2.6658  -1.4699  0.4816
H       -1.6182  0.6850  1.8985
H       -1.2968  -0.8644  2.0488
H       1.6230  -0.6856  -1.8978
H       1.2966  0.8636  -2.0495
H       3.6341  0.1631  -1.1636
H       2.6653  1.4706  -0.4822
H       2.6661  -1.4695  0.4822
H       3.6340  -0.1615  1.1637
H       1.2967  -0.8636  2.0492
H       1.6225  0.6857  1.8982
H       -1.6230  -0.6853  -1.8982
