27

Co      0.0250  0.0488  0.0034
Cl      0.0002  -2.3122  -0.2118
Cl      -0.0001  2.2449  0.2051
N       -1.3975  0.1712  -1.3445
N       -1.3975  -0.1814  1.3477
N       1.3566  0.1537  -1.2442
N       1.3565  -0.1635  1.2476
C       -2.8160  0.3950  -0.6937
C       -2.8163  -0.3943  0.6903
C       2.8161  0.3995  -0.6847
C       2.8163  -0.3984  0.6814
H       -1.4573  0.9088  -2.0644
H       -2.8403  1.4594  -0.5483
H       -3.5913  0.1313  -1.4082
H       -3.5868  -0.1369  1.4095
H       -2.8410  -1.4615  0.5382
H       -1.6837  0.5718  2.0244
H       -1.4207  -0.9767  1.9932
H       1.6060  -0.6591  -1.8118
H       1.3755  0.8729  -1.9819
H       3.5458  0.1392  -1.4539
H       2.8503  1.4705  -0.5315
H       2.8512  -1.4694  0.5214
H       3.5457  -0.1443  1.4507
H       1.3387  -0.9403  1.9108
H       1.6325  0.5953  1.8997
H       -1.6615  -0.6361  -1.9366
