27

Co      0.0000  0.0000  0.0000
Cl      0.0002  -2.3376  -0.2251
Cl      -0.0001  2.3376  0.2252
N       -1.5571  0.0900  -1.3050
N       -1.5571  -0.0902  1.3049
N       1.5571  0.0937  -1.3049
N       1.5571  -0.0934  1.3049
C       -2.7516  0.4301  -0.5956
C       -2.7518  -0.4294  0.5956
C       2.7517  0.4300  -0.5957
C       2.7518  -0.4289  0.5958
H       -1.2538  0.8858  -1.8626
H       -2.8567  1.4838  -0.3882
H       -3.5931  0.1197  -1.1960
H       -3.5931  -0.1186  1.1962
H       -2.8574  -1.4803  0.3883
H       -1.7665  0.6838  1.9400
H       -1.2542  -0.8864  1.8621
H       1.7630  -0.6845  -1.9431
H       1.2540  0.8893  -1.8635
H       3.5931  0.1111  -1.1962
H       2.8606  1.4773  -0.3926
H       2.8614  -1.4762  0.3927
H       3.5930  -0.1095  1.1963
H       1.2585  -0.8893  1.8631
H       1.7624  0.6846  1.9435
H       -1.7667  -0.6842  -1.9397
