27

Co      0.0250  0.0427  0.0422
Cl      0.0002  -2.3087  -0.2250
Cl      -0.0001  2.2455  0.2142
N       -1.4259  0.1684  -1.3337
N       -1.4391  -0.1827  1.3738
N       1.4635  0.1546  -1.3071
N       1.3195  -0.1685  1.2000
C       -2.6741  0.4139  -0.6903
C       -2.6743  -0.4074  0.6697
C       2.7232  0.4331  -0.7009
C       2.6252  -0.3968  0.6412
H       -1.4437  0.7855  -2.1655
H       -2.7429  1.4715  -0.4871
H       -3.3999  0.1795  -1.4725
H       -3.4147  -0.2121  1.4505
H       -2.7149  -1.4609  0.4418
H       -1.5532  0.7083  1.8296
H       -1.4684  -0.8706  2.1361
H       1.5328  -0.8223  -1.6207
H       1.4601  0.7337  -2.1779
H       3.4427  0.1783  -1.4818
H       2.8029  1.4908  -0.5084
H       2.6769  -1.4504  0.3945
H       3.2807  -0.2301  1.5383
H       1.2838  -0.8576  1.9424
H       1.3956  0.7171  1.6645
H       -1.4938  -0.7866  -1.6976
