27

Co      0.0490  0.0000  0.0000
Cl      -0.0063  -2.2379  -0.2142
Cl      -0.0067  2.2379  0.2143
N       -1.4409  0.1358  -1.2731
N       -1.4409  -0.1360  1.2730
N       1.4148  0.1390  -1.3287
N       1.4147  -0.1387  1.3287
C       -2.7648  0.4125  -0.6301
C       -2.7650  -0.4118  0.6301
C       2.7093  0.4060  -0.6400
C       2.7094  -0.4049  0.6401
H       -1.2651  0.8534  -1.9528
H       -2.8207  1.4672  -0.4116
H       -3.5705  0.1537  -1.2952
H       -3.5705  -0.1526  1.2953
H       -2.8213  -1.4665  0.4116
H       -1.4967  0.7400  1.7581
H       -1.2655  -0.8540  1.9523
H       1.4676  -0.7210  -1.8424
H       1.2260  0.8826  -1.9726
H       3.5378  0.1435  -1.2725
H       2.7554  1.4607  -0.4286
H       2.7562  -1.4596  0.4286
H       3.5377  -0.1420  1.2726
H       1.2262  -0.8826  1.9723
H       1.4670  0.7211  1.8428
H       -1.4970  -0.7403  -1.7578
