27

Co      0.0000  0.0000  0.0000
Cl      0.0002  -2.2540  -0.2181
Cl      -0.0001  2.2541  0.2182
N       -1.5635  0.0885  -1.3116
N       -1.5635  -0.0886  1.3115
N       1.5635  0.0922  -1.3115
N       1.5635  -0.0919  1.3115
C       -2.7531  0.4318  -0.5956
C       -2.7533  -0.4311  0.5956
C       2.7532  0.4317  -0.5957
C       2.7533  -0.4306  0.5958
H       -1.2619  0.8843  -1.8709
H       -2.8534  1.4855  -0.3849
H       -3.5996  0.1280  -1.1893
H       -3.5995  -0.1269  1.1895
H       -2.8541  -1.4820  0.3849
H       -1.7780  0.6853  1.9450
H       -1.2624  -0.8849  1.8704
H       1.7745  -0.6859  -1.9480
H       1.2621  0.8878  -1.8718
H       3.5995  0.1194  -1.1895
H       2.8573  1.4790  -0.3893
H       2.8581  -1.4779  0.3893
H       3.5995  -0.1179  1.1896
H       1.2667  -0.8878  1.8715
H       1.7739  0.6860  1.9484
H       -1.7782  -0.6857  -1.9447
