27

Co      0.0000  -0.0488  -0.0034
Cl      0.0002  -2.2630  -0.2125
Cl      -0.0001  2.3303  0.2194
N       -1.5316  0.1557  -1.3886
N       -1.5316  -0.1457  1.3851
N       1.5316  0.1556  -1.3885
N       1.5316  -0.1453  1.3852
C       -2.7120  0.4120  -0.6218
C       -2.7122  -0.4113  0.6252
C       2.7121  0.4120  -0.6220
C       2.7122  -0.4109  0.6254
H       -1.2782  0.9366  -1.9694
H       -2.9056  1.4695  -0.4598
H       -3.5526  0.0042  -1.1809
H       -3.5526  0.0036  1.1844
H       -2.9063  -1.4660  0.4699
H       -1.6934  0.7052  1.9007
H       -1.3156  -0.8698  2.0396
H       1.7206  -0.6419  -1.9875
H       1.2784  0.9363  -1.9696
H       3.5526  0.0039  -1.1811
H       2.9057  1.4667  -0.4605
H       2.9066  -1.4656  0.4706
H       3.5525  0.0045  1.1846
H       1.3156  -0.8690  2.0400
H       1.6932  0.7059  1.9003
H       -1.7206  -0.6416  -1.9879
