27

Co      0.0000  0.0488  0.0034
Cl      0.0002  -2.3070  -0.2154
Cl      -0.0001  2.2397  0.2088
N       -1.3098  0.1910  -1.3205
N       -1.3098  -0.2012  1.3238
N       1.3098  0.1872  -1.3205
N       1.3098  -0.1970  1.3238
C       -2.7548  0.3733  -0.6892
C       -2.7550  -0.3726  0.6859
C       2.7549  0.3733  -0.6894
C       2.7550  -0.3722  0.6861
H       -1.4999  0.8359  -2.1816
H       -2.7032  1.4376  -0.5089
H       -3.5494  0.1862  -1.4043
H       -3.5448  -0.1918  1.4056
H       -2.7038  -1.4397  0.4989
H       -1.4576  0.6614  1.8294
H       -1.4633  -0.9038  2.1104
H       1.4391  -0.7260  -1.7375
H       1.5001  0.8319  -2.1811
H       3.5493  0.1940  -1.4044
H       2.6995  1.4442  -0.5058
H       2.7004  -1.4431  0.4958
H       3.5493  -0.1991  1.4012
H       1.4588  -0.8993  2.1101
H       1.4656  0.6621  1.8254
H       -1.4354  -0.7258  -1.7416
