27

Co      0.0000  0.0427  0.0422
Cl      0.0002  -2.3603  -0.2267
Cl      -0.0001  2.2971  0.2159
N       -1.3815  0.1428  -1.3350
N       -1.3946  -0.1571  1.3751
N       1.4601  0.1427  -1.4085
N       1.3161  -0.1566  1.3015
C       -2.7848  0.3943  -0.6891
C       -2.7851  -0.3879  0.6686
C       2.8340  0.4090  -0.7089
C       2.7360  -0.3727  0.6492
H       -1.3382  0.8388  -2.0756
H       -2.6206  1.4618  -0.4788
H       -3.7226  0.2768  -1.2435
H       -3.7328  -0.3094  1.2260
H       -2.5926  -1.4541  0.4336
H       -1.5134  0.6606  1.9470
H       -1.3630  -0.9238  2.0462
H       1.5566  -0.7518  -1.8588
H       1.4366  0.8189  -2.1790
H       3.8109  0.2666  -1.2044
H       2.6698  1.4793  -0.5138
H       2.5438  -1.4390  0.3999
H       3.6489  -0.3184  1.2609
H       1.2647  -0.9427  1.9435
H       1.4194  0.6466  1.9025
H       -1.4585  -0.7389  -1.8150
