27

Co      0.0250  0.0000  0.0000
Cl      0.0002  -2.2771  -0.2195
Cl      -0.0001  2.2771  0.2196
N       -1.4180  0.1407  -1.3564
N       -1.4180  -0.1409  1.3563
N       1.3771  0.1270  -1.2561
N       1.3770  -0.1267  1.2561
C       -2.7014  0.4070  -0.6395
C       -2.7016  -0.4063  0.6395
C       2.7015  0.4115  -0.6306
C       2.7016  -0.4104  0.6306
H       -1.2544  0.8788  -2.0112
H       -2.7384  1.4617  -0.4248
H       -3.5449  0.1519  -1.2574
H       -3.5449  -0.1508  1.2576
H       -2.7391  -1.4610  0.4248
H       -1.4813  0.7241  1.8656
H       -1.2548  -0.8793  2.0107
H       1.4224  -0.7475  -1.7443
H       1.1726  0.8466  -1.9249
H       3.4993  0.1561  -1.3031
H       2.7522  1.4663  -0.4118
H       2.7530  -1.4652  0.4118
H       3.4993  -0.1545  1.3032
H       1.1728  -0.8466  1.9246
H       1.4219  0.7476  1.7447
H       -1.4816  -0.7245  -1.8653
