27

Co      0.0000  -0.0488  -0.0034
Cl      0.0002  -2.2595  -0.2200
Cl      -0.0001  2.3269  0.2269
N       -1.4920  0.1225  -1.3443
N       -1.4920  -0.1125  1.3409
N       1.4920  0.1261  -1.3443
N       1.4920  -0.1157  1.3409
C       -2.7626  0.4314  -0.6193
C       -2.7629  -0.4307  0.6227
C       2.7627  0.4314  -0.6195
C       2.7628  -0.4303  0.6229
H       -1.2946  0.8566  -1.9992
H       -2.7499  1.4824  -0.3609
H       -3.6201  0.2407  -1.2473
H       -3.6200  -0.2329  1.2508
H       -2.7505  -1.4816  0.3710
H       -1.5586  0.7972  1.7676
H       -1.3320  -0.7898  2.0694
H       1.5820  -0.7338  -1.8582
H       1.2947  0.8600  -1.9957
H       3.6200  0.2366  -1.2474
H       2.7538  1.4786  -0.3653
H       2.7546  -1.4775  0.3754
H       3.6200  -0.2283  1.2509
H       1.3319  -0.7928  2.0660
H       1.5546  0.7979  1.7710
H       -1.5858  -0.7336  -1.8548
