27

Co      0.0741  -0.0061  0.0389
Cl      -0.0063  -2.3266  -0.2233
Cl      -0.0067  2.3307  0.2193
N       -1.4700  0.1470  -1.3556
N       -1.4831  -0.1512  1.3923
N       1.4814  0.1365  -1.3846
N       1.3374  -0.1403  1.2742
C       -2.7585  0.4090  -0.6480
C       -2.7588  -0.4026  0.6308
C       2.7521  0.4217  -0.6685
C       2.6541  -0.3855  0.6121
H       -1.2959  0.8814  -2.0075
H       -2.8148  1.4658  -0.4441
H       -3.6010  0.1344  -1.2622
H       -3.6157  -0.1603  1.2435
H       -2.7868  -1.4552  0.4090
H       -1.5575  0.7058  1.9084
H       -1.3577  -0.8991  2.0488
H       1.5346  -0.7362  -1.8721
H       1.2731  0.8590  -2.0439
H       3.6111  0.1190  -1.2457
H       2.8122  1.4785  -0.4818
H       2.6863  -1.4382  0.3779
H       3.4491  -0.1640  1.3056
H       1.1383  -0.9156  1.8792
H       1.3705  0.6949  1.8283
H       -1.5250  -0.7201  -1.8639
