27

Co      -0.0490  -0.0488  -0.0034
Cl      0.0068  -2.2667  -0.2200
Cl      0.0064  2.3341  0.2269
N       -1.5185  0.1244  -1.4431
N       -1.5185  -0.1144  1.4396
N       1.5447  0.1248  -1.3875
N       1.5447  -0.1144  1.3841
C       -2.7255  0.4303  -0.6110
C       -2.7258  -0.4296  0.6143
C       2.7812  0.4368  -0.6013
C       2.7813  -0.4357  0.6047
H       -1.2494  0.9085  -2.0090
H       -2.7638  1.4676  -0.3151
H       -3.5348  0.2361  -1.2999
H       -3.5393  -0.2283  1.2989
H       -2.7644  -1.4669  0.3252
H       -1.4301  0.8092  1.8593
H       -1.2868  -0.8418  2.0792
H       1.4784  -0.7655  -1.8648
H       1.2888  0.8826  -1.9858
H       3.5675  0.2418  -1.3230
H       2.8330  1.4705  -0.3031
H       2.8338  -1.4694  0.3133
H       3.5674  -0.2335  1.3265
H       1.3260  -0.8153  2.0562
H       1.4509  0.8295  1.7777
H       -1.4527  -0.7456  -1.9465
