27

Co      0.0250  0.0427  0.0422
Cl      0.0002  -2.2767  -0.2196
Cl      -0.0001  2.2135  0.2089
N       -1.4589  0.1730  -1.3972
N       -1.4720  -0.1873  1.4373
N       1.4965  0.1592  -1.3706
N       1.3524  -0.1731  1.2635
C       -2.7278  0.4163  -0.6590
C       -2.7280  -0.4099  0.6385
C       2.7770  0.4356  -0.6697
C       2.6789  -0.3993  0.6099
H       -1.3561  0.7946  -2.1937
H       -2.8230  1.4731  -0.4673
H       -3.5734  0.0946  -1.2502
H       -3.5881  -0.1273  1.2282
H       -2.7950  -1.4625  0.4220
H       -1.5456  0.7186  1.8713
H       -1.3809  -0.8796  2.1643
H       1.5252  -0.8325  -1.6625
H       1.3725  0.7428  -2.2061
H       3.6162  0.0934  -1.2566
H       2.8858  1.4924  -0.4886
H       2.7599  -1.4520  0.3747
H       3.4542  -0.1452  1.3131
H       1.1962  -0.8666  1.9707
H       1.3880  0.7274  1.7062
H       -1.4862  -0.7968  -1.7393
