27

Co      0.0250  -0.0061  0.0389
Cl      0.0002  -2.2358  -0.2162
Cl      -0.0001  2.2400  0.2123
N       -1.4373  0.1732  -1.3414
N       -1.4504  -0.1775  1.3782
N       1.4749  0.1595  -1.3149
N       1.3309  -0.1633  1.2044
C       -2.7326  0.4187  -0.6525
C       -2.7328  -0.4123  0.6354
C       2.7817  0.4379  -0.6632
C       2.6837  -0.4017  0.6068
H       -1.3089  0.8091  -2.1177
H       -2.8397  1.4755  -0.4574
H       -3.5519  0.0932  -1.2748
H       -3.5666  -0.1191  1.2562
H       -2.8118  -1.4649  0.4223
H       -1.5059  0.7649  1.7558
H       -1.3707  -0.8268  2.1590
H       1.5124  -0.8149  -1.6344
H       1.3253  0.7573  -2.1301
H       3.5947  0.0920  -1.2812
H       2.9026  1.4948  -0.4788
H       2.7766  -1.4544  0.3749
H       3.4326  -0.1370  1.3411
H       1.1860  -0.8138  1.9653
H       1.3482  0.7737  1.5906
H       -1.4734  -0.7792  -1.7113
