27

Co      0.0000  0.0000  0.0000
Cl      0.0002  -2.2984  -0.2198
Cl      -0.0001  2.2985  0.2199
N       -1.5740  0.1264  -1.3389
N       -1.5740  -0.1265  1.3388
N       1.5740  0.1301  -1.3389
N       1.5739  -0.1298  1.3389
C       -2.8279  0.4391  -0.6126
C       -2.8281  -0.4384  0.6126
C       2.8279  0.4390  -0.6128
C       2.8281  -0.4379  0.6128
H       -1.1693  0.8435  -1.9506
H       -2.8875  1.4813  -0.3335
H       -3.6843  0.1896  -1.2223
H       -3.6888  -0.1885  1.2179
H       -2.8881  -1.4806  0.3335
H       -1.4082  0.8134  1.7330
H       -1.1697  -0.8440  1.9501
H       1.4002  -0.8141  -1.7361
H       1.1695  0.8469  -1.9471
H       3.6843  0.1855  -1.2224
H       2.8913  1.4776  -0.3379
H       2.8922  -1.4765  0.3379
H       3.6842  -0.1839  1.2225
H       1.1696  -0.8470  1.9467
H       1.3997  0.8142  1.7364
H       -1.4040  -0.8138  -1.7327
