27

Co      0.0250  0.0427  0.0422
Cl      0.0002  -2.3603  -0.2267
Cl      -0.0001  2.2971  0.2159
N       -1.4569  0.1436  -1.3817
N       -1.4700  -0.1579  1.4218
N       1.4945  0.1298  -1.3551
N       1.3505  -0.1437  1.2481
C       -2.7307  0.4058  -0.6546
C       -2.7310  -0.3993  0.6340
C       2.7799  0.4250  -0.6652
C       2.6819  -0.3887  0.6055
H       -1.2948  0.8625  -2.0526
H       -2.7821  1.4625  -0.4573
H       -3.5846  0.1262  -1.2525
H       -3.5994  -0.1588  1.2304
H       -2.7541  -1.4520  0.4121
H       -1.5563  0.6640  1.9947
H       -1.3196  -0.9475  2.0232
H       1.5358  -0.7779  -1.7858
H       1.3112  0.8107  -2.0695
H       3.6275  0.1205  -1.2588
H       2.8449  1.4818  -0.4787
H       2.7190  -1.4414  0.3647
H       3.4654  -0.1723  1.3154
H       1.1394  -0.9345  1.8340
H       1.3986  0.6728  1.8296
H       -1.4968  -0.7422  -1.8627
