27

Co      0.0000  0.0000  0.0000
Cl      0.0002  -2.3286  -0.2213
Cl      -0.0001  2.3287  0.2214
N       -1.4299  0.1791  -1.3606
N       -1.4299  -0.1792  1.3605
N       1.4299  0.1790  -1.3605
N       1.4299  -0.1788  1.3605
C       -2.7393  0.3795  -0.6399
C       -2.7395  -0.3787  0.6399
C       2.7393  0.3794  -0.6400
C       2.7395  -0.3783  0.6401
H       -1.4055  0.8440  -2.1363
H       -2.7195  1.4342  -0.4023
H       -3.6077  0.1789  -1.2513
H       -3.6077  -0.1778  1.2514
H       -2.7201  -1.4334  0.4023
H       -1.3494  0.7804  1.7218
H       -1.4060  -0.8445  2.1359
H       1.3496  -0.7810  -1.7210
H       1.4057  0.8437  -2.1322
H       3.6077  0.1830  -1.2514
H       2.7196  1.4342  -0.4029
H       2.7204  -1.4331  0.4029
H       3.6076  -0.1814  1.2516
H       1.4015  -0.8438  2.1318
H       1.3491  0.7811  1.7214
H       -1.3497  -0.7808  -1.7214
