27

Co      -0.0250  -0.0488  -0.0034
Cl      0.0002  -2.2166  -0.2072
Cl      -0.0001  2.2840  0.2140
N       -1.4875  0.1182  -1.2838
N       -1.4875  -0.1082  1.2803
N       1.5285  0.1318  -1.3839
N       1.5284  -0.1214  1.3805
C       -2.8064  0.3986  -0.6291
C       -2.8067  -0.3979  0.6325
C       2.8065  0.3940  -0.6383
C       2.8066  -0.3929  0.6418
H       -1.2175  0.9836  -1.7729
H       -2.8227  1.4533  -0.4063
H       -3.6283  0.1801  -1.2879
H       -3.6283  -0.1722  1.2914
H       -2.8233  -1.4526  0.4164
H       -1.5365  0.6939  1.8834
H       -1.2550  -0.9168  1.8431
H       1.6228  -0.6078  -2.0909
H       1.2997  1.0152  -1.8640
H       3.6738  0.1707  -1.2425
H       2.8091  1.4488  -0.4206
H       2.8099  -1.4477  0.4307
H       3.6738  -0.1624  1.2460
H       1.3413  -0.9479  1.9344
H       1.5954  0.6718  2.0037
H       -1.5637  -0.6303  -1.9706
