27

Co      -0.0741  -0.0488  -0.0034
Cl      0.0068  -2.3111  -0.2217
Cl      0.0064  2.3785  0.2286
N       -1.5991  0.1303  -1.4010
N       -1.5205  -0.1203  1.3239
N       1.5877  0.1444  -1.3719
N       1.6662  -0.1340  1.4422
C       -2.7476  0.4177  -0.6006
C       -2.6987  -0.4023  0.5843
C       2.7542  0.4049  -0.5804
C       2.8034  -0.4185  0.6034
H       -1.1922  0.8912  -1.9625
H       -2.8323  1.4628  -0.3415
H       -3.6647  0.1251  -1.1063
H       -3.5809  -0.1271  1.1446
H       -2.7839  -1.4445  0.3173
H       -1.3256  0.8222  1.7151
H       -1.1315  -0.8440  1.9296
H       1.4331  -0.7557  -1.8413
H       1.2154  0.9167  -1.9227
H       3.6546  0.1361  -1.1231
H       2.8388  1.4435  -0.3088
H       2.8887  -1.4571  0.3533
H       3.7429  -0.1180  1.0874
H       1.3508  -0.8298  2.0962
H       1.5038  0.8345  1.7983
H       -1.4464  -0.7733  -1.8465
