27

Co      0.0741  0.0000  0.0000
Cl      -0.0063  -2.2733  -0.2121
Cl      -0.0067  2.2734  0.2122
N       -1.3943  0.1736  -1.3187
N       -1.3943  -0.1737  1.3186
N       1.3272  0.1594  -1.2741
N       1.3271  -0.1591  1.2741
C       -2.7374  0.3795  -0.6715
C       -2.7377  -0.3788  0.6714
C       2.6819  0.3775  -0.6723
C       2.6821  -0.3764  0.6724
H       -1.3133  0.9171  -1.9971
H       -2.7752  1.4515  -0.5391
H       -3.6329  0.0639  -1.1972
H       -3.6284  -0.0628  1.2018
H       -2.7759  -1.4508  0.5391
H       -1.5913  0.6416  1.8982
H       -1.3137  -0.9177  1.9966
H       1.5112  -0.6453  -1.8581
H       1.1923  0.9107  -1.9342
H       3.5547  0.0620  -1.2200
H       2.7199  1.4533  -0.5387
H       2.7207  -1.4522  0.5387
H       3.5546  -0.0604  1.2201
H       1.1924  -0.9107  1.9338
H       1.5106  0.6454  1.8585
H       -1.5960  -0.6419  -1.8979
