27

Co      0.0000  0.0000  0.0000
Cl      0.0002  -2.2823  -0.2159
Cl      -0.0001  2.2823  0.2160
N       -1.4250  0.1514  -1.2754
N       -1.4250  -0.1516  1.2753
N       1.4250  0.1514  -1.2753
N       1.4250  -0.1511  1.2754
C       -2.7886  0.3685  -0.6487
C       -2.7889  -0.3678  0.6487
C       2.7887  0.3684  -0.6489
C       2.7889  -0.3673  0.6490
H       -1.4100  0.8785  -1.9982
H       -2.6714  1.4367  -0.4448
H       -3.7264  0.2131  -1.1863
H       -3.7218  -0.2120  1.1910
H       -2.6721  -1.4360  0.4448
H       -1.5157  0.7001  1.7974
H       -1.4105  -0.8791  1.9978
H       1.5204  -0.7008  -1.7967
H       1.4102  0.8782  -1.9985
H       3.7264  0.2128  -1.1864
H       2.6715  1.4368  -0.4454
H       2.6723  -1.4357  0.4454
H       3.7263  -0.2112  1.1866
H       1.4104  -0.8783  1.9981
H       1.5199  0.7008  1.7971
H       -1.5204  -0.7005  -1.7971
