27

Co      0.0000  0.0000  0.0000
Cl      0.0002  -2.3448  -0.2251
Cl      -0.0001  2.3448  0.2252
N       -1.6135  0.1258  -1.4080
N       -1.5349  -0.1259  1.3343
N       1.5350  0.1295  -1.3343
N       1.6135  -0.1292  1.4080
C       -2.7670  0.4439  -0.6146
C       -2.7181  -0.4285  0.5950
C       2.7179  0.4291  -0.5951
C       2.7672  -0.4427  0.6148
H       -1.3847  0.8287  -2.0876
H       -2.9088  1.4977  -0.4235
H       -3.6411  0.0797  -1.1545
H       -3.5527  -0.0884  1.1939
H       -2.8604  -1.4794  0.3891
H       -1.7216  0.7152  1.8614
H       -1.2869  -0.8489  1.9840
H       1.7180  -0.7159  -1.8644
H       1.2867  0.8518  -1.9810
H       3.5527  0.0854  -1.1939
H       2.8636  1.4764  -0.3935
H       2.9135  -1.4900  0.4279
H       3.6410  -0.0740  1.1548
H       1.3850  -0.8323  2.0837
H       1.8157  0.7307  1.9090
H       -1.8200  -0.7303  -1.9052
