27

Co      0.0741  0.0427  0.0422
Cl      -0.0063  -2.3139  -0.2213
Cl      -0.0067  2.2507  0.2106
N       -1.4325  0.1424  -1.2945
N       -1.4456  -0.1567  1.3346
N       1.4439  0.1319  -1.3235
N       1.2999  -0.1458  1.2164
C       -2.8401  0.4322  -0.6883
C       -2.8403  -0.4258  0.6678
C       2.8336  0.4449  -0.7088
C       2.7356  -0.4087  0.6491
H       -1.3157  0.8046  -2.0544
H       -2.8053  1.4997  -0.5134
H       -3.7160  0.1959  -1.2794
H       -3.7262  -0.2285  1.2619
H       -2.7774  -1.4920  0.4681
H       -1.6870  0.6551  1.9079
H       -1.3405  -0.8897  2.0250
H       1.6416  -0.7494  -1.7841
H       1.2929  0.7822  -2.0909
H       3.7262  0.1804  -1.2629
H       2.8028  1.5153  -0.5511
H       2.6768  -1.4749  0.4371
H       3.5641  -0.2322  1.3194
H       1.1211  -0.9061  1.8554
H       1.5044  0.6442  1.8278
H       -1.6321  -0.7333  -1.7759
