27

Co      0.0000  -0.0061  0.0389
Cl      0.0002  -2.2430  -0.2162
Cl      -0.0001  2.2472  0.2123
N       -1.3782  0.1414  -1.3433
N       -1.3913  -0.1456  1.3800
N       1.4568  0.1413  -1.4168
N       1.3127  -0.1451  1.3064
C       -2.7863  0.3911  -0.6778
C       -2.7866  -0.3847  0.6606
C       2.8355  0.4058  -0.6975
C       2.7375  -0.3696  0.6412
H       -1.4733  0.8807  -2.0728
H       -2.6318  1.4538  -0.4511
H       -3.6320  0.3127  -1.3661
H       -3.6422  -0.3386  1.3520
H       -2.6038  -1.4461  0.4159
H       -1.5842  0.6699  1.9519
H       -1.5351  -0.8984  2.1141
H       1.6544  -0.6971  -1.9512
H       1.5717  0.8607  -2.1762
H       3.7204  0.3025  -1.3270
H       2.6810  1.4714  -0.4861
H       2.5550  -1.4310  0.3822
H       3.5583  -0.3476  1.3869
H       1.4369  -0.9172  2.0114
H       1.4902  0.6558  1.9074
H       -1.5562  -0.6841  -1.9074
