27

Co      0.0000  0.0488  0.0034
Cl      0.0002  -2.3586  -0.2171
Cl      -0.0001  2.2913  0.2105
N       -1.4061  0.1733  -1.3402
N       -1.4061  -0.1835  1.3435
N       1.4062  0.1694  -1.3402
N       1.4061  -0.1793  1.3436
C       -2.7390  0.3744  -0.6783
C       -2.7392  -0.3737  0.6749
C       2.7391  0.3744  -0.6784
C       2.7392  -0.3733  0.6751
H       -1.3238  0.9082  -2.0260
H       -2.7787  1.4464  -0.5554
H       -3.6410  0.0490  -1.1941
H       -3.6364  -0.0547  1.1954
H       -2.7794  -1.4457  0.5453
H       -1.6055  0.5900  1.9862
H       -1.2872  -0.9761  1.9548
H       1.5871  -0.6546  -1.8942
H       1.3240  0.9042  -2.0300
H       3.6409  0.0524  -1.1942
H       2.7751  1.4502  -0.5523
H       2.7759  -1.4491  0.5422
H       3.6409  -0.0575  1.1910
H       1.2871  -0.9716  1.9589
H       1.6135  0.5907  1.9822
H       -1.5834  -0.6543  -1.8984
