27

Co      -0.0250  -0.0427  -0.0422
Cl      0.0002  -2.2186  -0.2052
Cl      -0.0001  2.2819  0.2161
N       -1.4838  0.1122  -1.3137
N       -1.4707  -0.0981  1.2734
N       1.4462  0.1258  -1.3401
N       1.5901  -0.1113  1.4472
C       -2.8163  0.4352  -0.5888
C       -2.8166  -0.4402  0.6093
C       2.7673  0.4158  -0.5784
C       2.8656  -0.4499  0.6383
H       -1.0135  0.9552  -1.7780
H       -2.9618  1.4869  -0.4012
H       -3.6994  0.0358  -1.0962
H       -3.6846  -0.0010  1.1185
H       -2.9911  -1.4960  0.4465
H       -1.5812  0.7178  1.8521
H       -0.9896  -0.8712  1.8065
H       1.6022  -0.6052  -2.0596
H       0.9974  1.0064  -1.7661
H       3.6565  0.0363  -1.0872
H       2.9021  1.4677  -0.3812
H       3.0297  -1.5058  0.4952
H       3.8185  0.0187  1.0310
H       1.1740  -0.8827  2.0009
H       1.7383  0.7105  2.0166
H       -1.6412  -0.6403  -1.9835
