27

Co      0.0237  -0.0004  0.0173
Cl      -1.0898  1.6229  -1.2230
Cl      1.1493  1.4341  1.3560
C       2.6336  -0.7090  -0.8046
C       2.1046  -1.8995  -0.0933
C       -2.5089  -1.3168  -0.4540
C       -2.4143  -1.1467  1.0581
N       1.4745  0.0479  -1.2964
N       1.0448  -1.4559  0.7845
N       -1.1328  -1.3556  -1.0391
N       -1.4610  -0.0462  1.3568
H       2.9298  -2.4210  0.3697
H       1.6433  -2.5770  -0.7951
H       -2.9654  -0.4604  -0.9199
H       -3.1216  -2.1901  -0.6509
H       1.7444  1.0043  -1.4899
H       1.2705  -0.3352  -2.2077
H       -1.9384  0.8359  1.2924
H       -1.1620  -0.1062  2.3134
H       -2.0308  -2.0282  1.5552
H       -3.4099  -0.9725  1.4393
H       0.5169  -2.2539  1.0815
H       1.5184  -1.1382  1.6174
H       3.3121  -1.0944  -1.5548
H       3.1760  -0.0351  -0.1627
H       -0.8550  -2.3198  -1.0678
H       -1.2188  -1.0720  -1.9988
