27

Co      0.0002  -0.0091  0.0102
Cl      -1.0875  1.6089  -1.2191
Cl      1.1315  1.3973  1.3270
C       2.6136  -0.7145  -0.8172
C       2.1071  -1.8769  -0.1037
C       -2.4884  -1.2877  -0.4277
C       -2.3965  -1.1202  1.0507
N       1.5140  0.0707  -1.2872
N       1.0952  -1.4857  0.8682
N       -1.1240  -1.2885  -1.0377
N       -1.4654  -0.0439  1.3426
H       2.9489  -2.3377  0.3881
H       1.6773  -2.6139  -0.7668
H       -3.0542  -0.4968  -0.8863
H       -2.9825  -2.2263  -0.6344
H       1.7624  1.0413  -1.3295
H       1.2323  -0.1870  -2.2131
H       -1.8999  0.8564  1.2417
H       -1.1279  -0.0827  2.2815
H       -2.0165  -2.0269  1.5003
H       -3.3750  -0.9396  1.4674
H       0.6174  -2.3041  1.1916
H       1.5265  -1.0595  1.6677
H       3.2632  -1.0394  -1.6160
H       3.1955  -0.1132  -0.1446
H       -0.7791  -2.2250  -1.0974
H       -1.2040  -0.9303  -1.9715
