27

Co      0.0262  0.0279  0.0265
Cl      -1.0803  1.6027  -1.2163
Cl      1.1185  1.3854  1.3144
C       2.6494  -0.7016  -0.8386
C       2.1262  -1.9271  -0.0836
C       -2.4995  -1.3073  -0.4599
C       -2.3992  -1.1364  1.0580
N       1.4617  0.0764  -1.2762
N       1.0214  -1.4646  0.8172
N       -1.1165  -1.3492  -1.0433
N       -1.4474  -0.0332  1.3668
H       2.9492  -2.4169  0.4095
H       1.6696  -2.6385  -0.7564
H       -2.9591  -0.4576  -0.9349
H       -3.1065  -2.1864  -0.6460
H       1.7280  1.0341  -1.4497
H       1.2257  -0.2791  -2.1887
H       -1.9320  0.8468  1.3117
H       -1.1471  -0.0982  2.3212
H       -2.0019  -2.0205  1.5393
H       -3.3901  -0.9741  1.4564
H       0.4752  -2.2590  1.0983
H       1.4984  -1.1680  1.6596
H       3.3169  -1.0416  -1.6171
H       3.1926  -0.0367  -0.1873
H       -0.8362  -2.3102  -1.0658
H       -1.1973  -1.0645  -2.0028
