27

Co      0.0164  0.0021  0.0209
Cl      -1.0910  1.6241  -1.2243
Cl      1.1505  1.4366  1.3585
C       2.6384  -0.7053  -0.8144
C       2.0972  -1.8886  -0.0884
C       -2.5101  -1.3192  -0.4564
C       -2.4119  -1.1455  1.0558
N       1.5025  0.0637  -1.3439
N       1.0473  -1.4925  0.8248
N       -1.1376  -1.3631  -1.0467
N       -1.4636  -0.0412  1.3656
H       2.9360  -2.4259  0.3380
H       1.6189  -2.5502  -0.7950
H       -2.9676  -0.4639  -0.9260
H       -3.1266  -2.1924  -0.6460
H       1.7749  1.0202  -1.5216
H       1.3144  -0.3133  -2.2613
H       -1.9435  0.8409  1.3207
H       -1.1537  -0.1183  2.3174
H       -2.0211  -2.0257  1.5492
H       -3.4088  -0.9812  1.4392
H       0.5303  -2.3112  1.0900
H       1.5147  -1.1967  1.6723
H       3.3267  -1.1285  -1.5450
H       3.1832  -0.0254  -0.1809
H       -0.8588  -2.3273  -1.0756
H       -1.2189  -1.0769  -2.0051
