27

Co      0.0034  0.0118  0.0098
Cl      -1.0809  1.6077  -1.2185
Cl      1.1263  1.3920  1.3243
C       2.5903  -0.7028  -0.8138
C       2.1007  -1.8894  -0.0970
C       -2.4815  -1.3007  -0.4428
C       -2.3879  -1.1110  1.0453
N       1.4757  0.0683  -1.2742
N       1.0785  -1.5019  0.8664
N       -1.1117  -1.3042  -1.0364
N       -1.4273  -0.0535  1.3390
H       2.9980  -2.3428  0.3210
H       1.6387  -2.6186  -0.7455
H       -3.0063  -0.5091  -0.9538
H       -3.0287  -2.2304  -0.5759
H       1.7625  1.0252  -1.3998
H       1.2751  -0.2494  -2.2073
H       -1.8940  0.8390  1.3077
H       -1.1088  -0.1392  2.2840
H       -2.0093  -2.0062  1.5208
H       -3.3790  -0.9366  1.4385
H       0.6252  -2.3340  1.2004
H       1.5804  -1.1527  1.6692
H       3.3011  -1.0608  -1.5518
H       3.1145  -0.0576  -0.1347
H       -0.8210  -2.2609  -1.0696
H       -1.2141  -1.0154  -1.9928
