27

Co      0.0083  0.0004  -0.0158
Cl      -1.0997  1.6172  -1.2137
Cl      1.1653  1.4438  1.3679
C       2.6695  -0.7196  -0.8013
C       2.1458  -1.9471  -0.1135
C       -2.5545  -1.2904  -0.4291
C       -2.4332  -1.1831  1.0640
N       1.5160  0.0671  -1.3189
N       1.1244  -1.5021  0.8795
N       -1.1640  -1.3107  -1.0019
N       -1.5227  -0.0441  1.3226
H       2.8977  -2.4835  0.4446
H       1.7182  -2.6334  -0.8325
H       -3.0959  -0.4331  -0.7933
H       -3.0395  -2.1862  -0.7924
H       1.7158  1.0527  -1.3394
H       1.1544  -0.1874  -2.2191
H       -1.9552  0.8500  1.1542
H       -1.1452  -0.0171  2.2514
H       -2.0220  -2.0963  1.4726
H       -3.3812  -1.0012  1.5473
H       0.5835  -2.2720  1.2195
H       1.4987  -0.9882  1.6621
H       3.2910  -0.9254  -1.6632
H       3.2442  -0.1348  -0.1020
H       -0.7459  -2.2236  -0.9766
H       -1.1810  -0.9846  -1.9492
