27

Co      0.0009  0.0170  -0.0023
Cl      -1.0733  1.5905  -1.2009
Cl      1.1408  1.4148  1.3463
C       2.6444  -0.6985  -0.8266
C       2.1059  -1.9065  -0.1255
C       -2.4927  -1.2724  -0.4350
C       -2.3997  -1.1448  1.0522
N       1.5069  0.0479  -1.3229
N       1.0390  -1.4816  0.8569
N       -1.1074  -1.3254  -1.0040
N       -1.4816  -0.0538  1.3484
H       2.9147  -2.3761  0.4094
H       1.6819  -2.6405  -0.7952
H       -3.0067  -0.4441  -0.8853
H       -3.0219  -2.1788  -0.6753
H       1.7311  1.0200  -1.4280
H       1.2094  -0.2694  -2.2264
H       -1.9348  0.8359  1.2356
H       -1.1482  -0.0750  2.2901
H       -1.9902  -2.0572  1.4657
H       -3.3709  -0.9983  1.4963
H       0.5256  -2.2868  1.1587
H       1.4700  -1.0890  1.6715
H       3.3628  -0.9442  -1.5969
H       3.1369  -0.0805  -0.0938
H       -0.7684  -2.2658  -0.9778
H       -1.1537  -1.0473  -1.9655
