27

Co      -0.0260  -0.0299  -0.0168
Cl      -1.0896  1.6130  -1.2152
Cl      1.1907  1.4876  1.3977
C       2.7163  -0.7120  -0.8477
C       2.1637  -1.9696  -0.1093
C       -2.5438  -1.3227  -0.4406
C       -2.4405  -1.1519  1.0724
N       1.5098  0.0707  -1.3063
N       1.0604  -1.4714  0.8643
N       -1.1577  -1.2964  -1.0429
N       -1.4810  -0.0479  1.3366
H       2.9248  -2.4912  0.4542
H       1.7067  -2.6722  -0.7905
H       -3.0942  -0.5052  -0.8789
H       -3.0410  -2.2467  -0.6972
H       1.7103  1.0585  -1.3194
H       1.2452  -0.1719  -2.2418
H       -1.9199  0.8502  1.2271
H       -1.1232  -0.0648  2.2745
H       -2.0601  -2.0491  1.5358
H       -3.4042  -0.9451  1.5051
H       0.5562  -2.2496  1.2455
H       1.5045  -0.9981  1.6337
H       3.3826  -0.9314  -1.6697
H       3.2415  -0.0874  -0.1424
H       -0.7909  -2.2304  -1.1135
H       -1.2288  -0.9269  -1.9741
