27

Co      -0.0251  -0.0148  -0.0144
Cl      -1.0832  1.5983  -1.2087
Cl      1.1843  1.4756  1.3903
C       2.7008  -0.7272  -0.8302
C       2.1530  -1.9389  -0.1039
C       -2.5394  -1.3218  -0.4359
C       -2.4486  -1.1592  1.0708
N       1.5308  0.0609  -1.3182
N       1.0790  -1.4689  0.8301
N       -1.1583  -1.2848  -1.0295
N       -1.4995  -0.0501  1.3462
H       2.9256  -2.4594  0.4443
H       1.7128  -2.6371  -0.7985
H       -3.0898  -0.5019  -0.8666
H       -3.0346  -2.2429  -0.7040
H       1.7575  1.0401  -1.3555
H       1.2764  -0.2017  -2.2497
H       -1.9439  0.8452  1.2529
H       -1.1383  -0.0832  2.2812
H       -2.0716  -2.0545  1.5434
H       -3.4218  -0.9565  1.4874
H       0.5733  -2.2554  1.1883
H       1.5049  -1.0072  1.6146
H       3.3457  -1.0167  -1.6438
H       3.2637  -0.1008  -0.1586
H       -0.7814  -2.2147  -1.0837
H       -1.2296  -0.9323  -1.9663
