27

Co      0.0273  0.0350  0.0144
Cl      -1.0971  1.6188  -1.2254
Cl      1.1348  1.4048  1.3327
C       2.6662  -0.7139  -0.8287
C       2.1397  -1.9366  -0.0932
C       -2.5346  -1.3134  -0.4441
C       -2.4334  -1.1632  1.0620
N       1.5129  0.0803  -1.3303
N       1.0800  -1.5196  0.8763
N       -1.1502  -1.3441  -1.0293
N       -1.4970  -0.0464  1.3681
H       2.9405  -2.4534  0.4077
H       1.6908  -2.6289  -0.7908
H       -3.0388  -0.4653  -0.8724
H       -3.0807  -2.2040  -0.7091
H       1.7578  1.0471  -1.4417
H       1.2093  -0.2370  -2.2311
H       -1.9545  0.8429  1.2855
H       -1.1520  -0.0976  2.3069
H       -2.0424  -2.0638  1.5147
H       -3.4092  -0.9857  1.4888
H       0.5247  -2.3158  1.1369
H       1.4959  -1.1554  1.7150
H       3.3155  -1.0143  -1.6369
H       3.2308  -0.0852  -0.1614
H       -0.7992  -2.2802  -1.0344
H       -1.2015  -1.0334  -1.9804
