27

Co      0.0263  0.0143  0.0135
Cl      -1.0993  1.6238  -1.2221
Cl      1.1343  1.4042  1.3317
C       2.6459  -0.7032  -0.8259
C       2.1290  -1.9301  -0.0900
C       -2.5277  -1.2934  -0.4487
C       -2.3987  -1.1558  1.0565
N       1.4935  0.0955  -1.3170
N       1.0832  -1.5223  0.8971
N       -1.1483  -1.3598  -1.0440
N       -1.4828  -0.0233  1.3487
H       2.9386  -2.4506  0.3920
H       1.6682  -2.6182  -0.7858
H       -3.0124  -0.4282  -0.8650
H       -3.1025  -2.1673  -0.7120
H       1.7311  1.0665  -1.4002
H       1.1941  -0.1992  -2.2261
H       -1.9473  0.8604  1.2365
H       -1.1452  -0.0435  2.2903
H       -1.9739  -2.0513  1.4892
H       -3.3681  -1.0062  1.5087
H       0.5436  -2.3204  1.1761
H       1.5070  -1.1424  1.7238
H       3.2879  -1.0000  -1.6411
H       3.2161  -0.0778  -0.1610
H       -0.8158  -2.3028  -1.0430
H       -1.1941  -1.0520  -1.9966
