27

Co      0.0375  0.0289  0.0100
Cl      -1.0816  1.6001  -1.2172
Cl      1.1162  1.3771  1.3155
C       2.5925  -0.7028  -0.8181
C       2.0932  -1.8838  -0.0958
C       -2.4784  -1.3003  -0.4351
C       -2.4131  -1.1230  1.0602
N       1.4836  0.0690  -1.2867
N       1.0685  -1.4890  0.8597
N       -1.1179  -1.3313  -1.0620
N       -1.4786  -0.0484  1.3889
H       2.9850  -2.3374  0.3277
H       1.6304  -2.6107  -0.7448
H       -2.9800  -0.4880  -0.9328
H       -3.0585  -2.2075  -0.5763
H       1.7789  1.0197  -1.4543
H       1.2610  -0.2812  -2.2038
H       -1.9522  0.8370  1.3358
H       -1.1842  -0.1299  2.3441
H       -2.0360  -2.0140  1.5438
H       -3.4257  -0.9708  1.4181
H       0.5736  -2.3122  1.1516
H       1.5596  -1.1774  1.6857
H       3.3070  -1.0682  -1.5500
H       3.1154  -0.0549  -0.1393
H       -0.8499  -2.2964  -1.1329
H       -1.2424  -1.0156  -2.0098
