27

Co      -0.0030  0.0002  0.0024
Cl      -1.0958  1.6192  -1.2208
Cl      1.1694  1.4611  1.3684
C       2.7285  -0.7248  -0.8469
C       2.1925  -1.9964  -0.0799
C       -2.5740  -1.3314  -0.4562
C       -2.4469  -1.1828  1.0709
N       1.4872  0.0864  -1.2917
N       1.0502  -1.4823  0.8187
N       -1.1603  -1.3002  -0.9901
N       -1.4697  -0.0483  1.3112
H       2.9264  -2.5299  0.5133
H       1.7620  -2.6925  -0.7887
H       -3.0788  -0.4708  -0.8621
H       -3.0901  -2.2238  -0.7822
H       1.7023  1.0685  -1.3372
H       1.2027  -0.1739  -2.2157
H       -1.9271  0.8397  1.2039
H       -1.1113  -0.0552  2.2488
H       -2.0562  -2.0751  1.5395
H       -3.3954  -0.9585  1.5339
H       0.4797  -2.2420  1.1429
H       1.4612  -1.0575  1.6318
H       3.3192  -0.9797  -1.7172
H       3.3197  -0.0865  -0.2049
H       -0.7702  -2.2242  -0.9773
H       -1.1850  -0.9973  -1.9460
