27

Co      0.0229  0.0100  0.0160
Cl      -1.0824  1.6048  -1.2163
Cl      1.1206  1.3929  1.3207
C       2.6472  -0.6960  -0.8438
C       2.1151  -1.9174  -0.0781
C       -2.4943  -1.2972  -0.4509
C       -2.4131  -1.1479  1.0675
N       1.4799  0.0920  -1.3168
N       1.0146  -1.4857  0.8427
N       -1.0969  -1.3017  -1.0013
N       -1.4590  -0.0421  1.3538
H       2.9478  -2.4119  0.3951
H       1.6522  -2.6235  -0.7526
H       -2.9603  -0.4475  -0.9195
H       -3.0709  -2.1827  -0.6735
H       1.7428  1.0540  -1.4456
H       1.2771  -0.2346  -2.2478
H       -1.9446  0.8349  1.2727
H       -1.1610  -0.0794  2.3099
H       -2.0152  -2.0322  1.5489
H       -3.4038  -0.9818  1.4664
H       0.4867  -2.2933  1.1217
H       1.4871  -1.1833  1.6850
H       3.3268  -1.0626  -1.6039
H       3.1855  -0.0264  -0.1954
H       -0.7996  -2.2570  -1.0154
H       -1.1671  -1.0224  -1.9633
