27

Co      -0.0085  0.0076  0.0044
Cl      -1.0994  1.6320  -1.2270
Cl      1.1693  1.4565  1.3757
C       2.6876  -0.7134  -0.8134
C       2.1379  -1.9417  -0.1131
C       -2.5515  -1.3223  -0.4470
C       -2.4373  -1.1688  1.0542
N       1.5244  0.0498  -1.3499
N       1.0857  -1.5097  0.8623
N       -1.1522  -1.3148  -0.9890
N       -1.4721  -0.0697  1.3207
H       2.9206  -2.4946  0.3859
H       1.6760  -2.6066  -0.8295
H       -3.0758  -0.4887  -0.8834
H       -3.0597  -2.2325  -0.7233
H       1.7473  1.0246  -1.4519
H       1.2590  -0.2738  -2.2586
H       -1.9210  0.8262  1.2436
H       -1.1095  -0.1130  2.2543
H       -2.0533  -2.0749  1.5035
H       -3.3942  -0.9643  1.5062
H       0.5715  -2.3066  1.1838
H       1.5197  -1.0954  1.6662
H       3.3749  -0.9947  -1.5968
H       3.2094  -0.0765  -0.1195
H       -0.7768  -2.2443  -0.9606
H       -1.1811  -1.0317  -1.9489
