27

Co      -0.0232  -0.0035  -0.0109
Cl      -1.0757  1.5832  -1.1956
Cl      1.1740  1.4566  1.3753
C       2.6819  -0.7225  -0.8223
C       2.1521  -1.9425  -0.1029
C       -2.5525  -1.3093  -0.4452
C       -2.4162  -1.1573  1.0547
N       1.5015  0.0641  -1.2835
N       1.0853  -1.4597  0.8285
N       -1.1651  -1.2878  -1.0162
N       -1.4690  -0.0426  1.3001
H       2.9291  -2.4551  0.4457
H       1.7144  -2.6494  -0.7931
H       -3.0963  -0.4840  -0.8708
H       -3.0534  -2.2268  -0.7109
H       1.7313  1.0428  -1.3282
H       1.2321  -0.1989  -2.2101
H       -1.9244  0.8477  1.1962
H       -1.1092  -0.0547  2.2339
H       -2.0068  -2.0542  1.4985
H       -3.3692  -0.9679  1.5220
H       0.5831  -2.2389  1.2090
H       1.5223  -0.9867  1.6012
H       3.3170  -0.9897  -1.6522
H       3.2486  -0.1021  -0.1476
H       -0.7896  -2.2171  -1.0210
H       -1.2159  -0.9758  -1.9674
