27

Co      -0.0071  0.0025  0.0131
Cl      -1.0896  1.6153  -1.2188
Cl      1.1584  1.4395  1.3609
C       2.6835  -0.7114  -0.8298
C       2.1323  -1.9242  -0.1032
C       -2.5212  -1.3117  -0.4505
C       -2.4102  -1.1456  1.0571
N       1.5208  0.0676  -1.3344
N       1.0663  -1.4902  0.8562
N       -1.1505  -1.3568  -1.0618
N       -1.4801  -0.0293  1.3699
H       2.9104  -2.4625  0.4130
H       1.6763  -2.6032  -0.8087
H       -3.0289  -0.4678  -0.8827
H       -3.0796  -2.2029  -0.6923
H       1.7438  1.0414  -1.4251
H       1.2367  -0.2416  -2.2436
H       -1.9299  0.8647  1.2947
H       -1.1254  -0.0856  2.3054
H       -2.0137  -2.0414  1.5122
H       -3.3854  -0.9742  1.4824
H       0.5347  -2.2862  1.1501
H       1.4867  -1.0938  1.6762
H       3.3354  -1.0146  -1.6335
H       3.2427  -0.0795  -0.1612
H       -0.8077  -2.2974  -1.0949
H       -1.2074  -1.0192  -2.0030
