27

Co      0.0269  0.0116  0.0184
Cl      -1.0766  1.5987  -1.2095
Cl      1.1351  1.4129  1.3366
C       2.5960  -0.7065  -0.8275
C       2.0978  -1.8771  -0.0962
C       -2.4977  -1.2995  -0.4470
C       -2.3827  -1.1181  1.0419
N       1.4696  0.0601  -1.2610
N       1.0323  -1.4686  0.8138
N       -1.1369  -1.3667  -1.0624
N       -1.4406  -0.0456  1.3424
H       2.9732  -2.3056  0.3798
H       1.6700  -2.6322  -0.7409
H       -2.9863  -0.4827  -0.9475
H       -3.0986  -2.2016  -0.5712
H       1.7547  1.0147  -1.4204
H       1.2358  -0.2792  -2.1773
H       -1.9129  0.8388  1.2743
H       -1.1527  -0.1069  2.2998
H       -1.9850  -2.0093  1.5059
H       -3.3726  -0.9665  1.4446
H       0.5261  -2.2902  1.0886
H       1.5061  -1.1692  1.6559
H       3.2842  -1.0718  -1.5790
H       3.1396  -0.0580  -0.1635
H       -0.8825  -2.3373  -1.1048
H       -1.2406  -1.0759  -2.0196
