27

Co      -0.0246  -0.0085  -0.0199
Cl      -1.1045  1.6357  -1.2259
Cl      1.1836  1.4724  1.3876
C       2.7031  -0.7138  -0.8209
C       2.1721  -1.9875  -0.1208
C       -2.5616  -1.3116  -0.4357
C       -2.4370  -1.1699  1.0611
N       1.5175  0.0696  -1.3275
N       1.1176  -1.5333  0.9204
N       -1.1616  -1.2979  -0.9995
N       -1.4844  -0.0603  1.3108
H       2.9180  -2.5271  0.4464
H       1.7308  -2.6760  -0.8291
H       -3.1371  -0.4872  -0.8304
H       -3.0067  -2.2397  -0.7749
H       1.6937  1.0645  -1.3074
H       1.1672  -0.1551  -2.2406
H       -1.8998  0.8481  1.1874
H       -1.0750  -0.0658  2.2282
H       -2.0524  -2.0906  1.4761
H       -3.3716  -0.9486  1.5532
H       0.6040  -2.3092  1.2900
H       1.5093  -0.9969  1.6841
H       3.3546  -0.8593  -1.6818
H       3.2359  -0.1278  -0.0876
H       -0.7211  -2.2033  -0.9761
H       -1.1729  -0.9655  -1.9435
