27

Co      0.0263  0.0175  0.0117
Cl      -1.0948  1.6268  -1.2236
Cl      1.1313  1.4042  1.3332
C       2.5934  -0.7060  -0.8086
C       2.0975  -1.8830  -0.1074
C       -2.4955  -1.2800  -0.4355
C       -2.3880  -1.1381  1.0439
N       1.5010  0.0654  -1.3156
N       1.0816  -1.5340  0.8812
N       -1.1284  -1.3707  -1.0351
N       -1.4759  -0.0461  1.3544
H       2.9545  -2.3431  0.3621
H       1.6744  -2.6112  -0.7835
H       -2.9963  -0.4436  -0.8836
H       -3.0607  -2.1732  -0.6532
H       1.7561  1.0292  -1.4245
H       1.1980  -0.2485  -2.2171
H       -1.9262  0.8453  1.2578
H       -1.1434  -0.0905  2.2953
H       -1.9836  -2.0469  1.4674
H       -3.3661  -0.9920  1.4762
H       0.5683  -2.3607  1.1304
H       1.4963  -1.1773  1.7239
H       3.2738  -1.0225  -1.5841
H       3.1435  -0.0915  -0.1213
H       -0.8100  -2.3174  -1.0176
H       -1.1845  -1.0877  -1.9948
