27

Co      -0.0278  -0.0266  -0.0193
Cl      -1.1021  1.6430  -1.2295
Cl      1.1827  1.4777  1.3933
C       2.6813  -0.7121  -0.7810
C       2.1442  -1.9643  -0.1001
C       -2.5334  -1.3166  -0.4439
C       -2.4393  -1.1788  1.0704
N       1.5042  0.0709  -1.3666
N       1.1167  -1.5303  0.8715
N       -1.1303  -1.2862  -0.9821
N       -1.4789  -0.0475  1.3327
H       2.8656  -2.5750  0.4340
H       1.6961  -2.5848  -0.8723
H       -3.0706  -0.4521  -0.8038
H       -3.0026  -2.2105  -0.8484
H       1.6816  1.0617  -1.3776
H       1.1931  -0.1958  -2.2786
H       -1.8924  0.8631  1.2375
H       -1.0483  -0.0749  2.2413
H       -2.0818  -2.0873  1.5340
H       -3.3890  -0.9294  1.5198
H       0.5813  -2.2979  1.2211
H       1.4794  -0.9983  1.6535
H       3.2895  -0.9526  -1.6395
H       3.2600  -0.0980  -0.1146
H       -0.6680  -2.1831  -0.9357
H       -1.1262  -0.9695  -1.9313
