27

Co      0.0290  0.0306  0.0161
Cl      -1.0884  1.6103  -1.2189
Cl      1.1214  1.3818  1.3223
C       2.6137  -0.6992  -0.7857
C       2.0894  -1.8944  -0.0961
C       -2.5038  -1.3030  -0.4470
C       -2.4076  -1.1484  1.0534
N       1.4963  0.0714  -1.3462
N       1.1012  -1.5083  0.8759
N       -1.1299  -1.3398  -1.0353
N       -1.4778  -0.0365  1.3705
H       2.9037  -2.4533  0.3395
H       1.6150  -2.5410  -0.8230
H       -3.0040  -0.4514  -0.8702
H       -3.0601  -2.1868  -0.7078
H       1.7456  1.0324  -1.5011
H       1.2091  -0.2942  -2.2369
H       -1.9316  0.8574  1.3075
H       -1.1243  -0.1061  2.3030
H       -2.0232  -2.0482  1.5150
H       -3.3912  -0.9719  1.4655
H       0.5649  -2.3077  1.1533
H       1.5266  -1.1322  1.7023
H       3.2777  -1.0435  -1.5652
H       3.1735  -0.0644  -0.1253
H       -0.7822  -2.2753  -1.0319
H       -1.1821  -1.0351  -1.9873
