27

Co      0.0168  0.0160  0.0315
Cl      -1.1023  1.6344  -1.2327
Cl      1.1400  1.4145  1.3355
C       2.6742  -0.7112  -0.8388
C       2.1435  -1.9372  -0.0899
C       -2.5430  -1.3230  -0.4613
C       -2.4098  -1.1488  1.0506
N       1.4904  0.0714  -1.2884
N       1.0601  -1.4873  0.8441
N       -1.1541  -1.3475  -1.0310
N       -1.4460  -0.0463  1.3274
H       2.9719  -2.4539  0.3726
H       1.6624  -2.6273  -0.7693
H       -3.0185  -0.4817  -0.9387
H       -3.1327  -2.2143  -0.6448
H       1.7560  1.0331  -1.4390
H       1.2728  -0.2685  -2.2089
H       -1.9320  0.8331  1.2645
H       -1.1433  -0.0987  2.2833
H       -1.9999  -2.0340  1.5201
H       -3.3836  -0.9802  1.4827
H       0.5437  -2.2916  1.1499
H       1.5526  -1.1700  1.6685
H       3.3496  -1.0578  -1.6100
H       3.2160  -0.0472  -0.1842
H       -0.8669  -2.3084  -1.0478
H       -1.2225  -1.0657  -1.9915
