27

Co      -0.0359  -0.0107  -0.0022
Cl      -1.1032  1.6383  -1.2250
Cl      1.1859  1.4806  1.3865
C       2.6973  -0.7351  -0.8257
C       2.1792  -1.9608  -0.1051
C       -2.5656  -1.3098  -0.4481
C       -2.4162  -1.1716  1.0481
N       1.5178  0.0561  -1.2923
N       1.0987  -1.5160  0.8365
N       -1.1627  -1.3072  -0.9755
N       -1.4589  -0.0589  1.2780
H       2.9694  -2.4643  0.4363
H       1.7556  -2.6725  -0.7998
H       -3.0879  -0.4724  -0.8772
H       -3.0732  -2.2200  -0.7314
H       1.7479  1.0374  -1.3181
H       1.2603  -0.1901  -2.2263
H       -1.9170  0.8298  1.1799
H       -1.0920  -0.0695  2.2113
H       -1.9986  -2.0732  1.4768
H       -3.3566  -0.9807  1.5399
H       0.6104  -2.3153  1.1932
H       1.5261  -1.0608  1.6255
H       3.3326  -1.0072  -1.6535
H       3.2660  -0.1120  -0.1547
H       -0.7792  -2.2350  -0.9125
H       -1.1790  -1.0538  -1.9468
