27

Co      0.0000  0.0032  -0.0017
Cl      -1.0839  1.6150  -1.2170
Cl      1.1542  1.4393  1.3620
C       2.6156  -0.7110  -0.8150
C       2.1054  -1.8924  -0.1087
C       -2.4953  -1.2987  -0.4380
C       -2.4117  -1.1374  1.0524
N       1.4968  0.0438  -1.3010
N       1.0567  -1.4966  0.8282
N       -1.1164  -1.3195  -1.0095
N       -1.4606  -0.0682  1.3397
H       2.9843  -2.3471  0.3409
H       1.6628  -2.6217  -0.7677
H       -2.9925  -0.4834  -0.9368
H       -3.0584  -2.2098  -0.6045
H       1.7771  1.0025  -1.4418
H       1.3090  -0.2917  -2.2313
H       -1.9344  0.8168  1.2816
H       -1.1522  -0.1295  2.2916
H       -2.0241  -2.0321  1.5205
H       -3.4036  -0.9756  1.4460
H       0.5906  -2.3274  1.1460
H       1.5431  -1.1577  1.6439
H       3.3471  -1.0678  -1.5343
H       3.1168  -0.0550  -0.1254
H       -0.8274  -2.2797  -1.0119
H       -1.2062  -1.0646  -1.9782
