27

Co      -0.0094  -0.0119  0.0049
Cl      -1.1103  1.6437  -1.2319
Cl      1.1787  1.4684  1.3816
C       2.6884  -0.7225  -0.8098
C       2.1497  -1.9405  -0.1158
C       -2.5710  -1.3187  -0.4390
C       -2.4285  -1.1675  1.0484
N       1.5361  0.0598  -1.3373
N       1.1197  -1.5165  0.8846
N       -1.1830  -1.3250  -1.0107
N       -1.4798  -0.0585  1.3037
H       2.8959  -2.4916  0.4383
H       1.7174  -2.6175  -0.8418
H       -3.1406  -0.4920  -0.8312
H       -3.0358  -2.2410  -0.7619
H       1.7257  1.0479  -1.3523
H       1.1798  -0.1955  -2.2378
H       -1.8921  0.8500  1.1768
H       -1.0867  -0.0694  2.2260
H       -2.0441  -2.0863  1.4685
H       -3.3628  -0.9460  1.5411
H       0.5890  -2.3016  1.2025
H       1.4900  -1.0204  1.6799
H       3.3077  -0.9527  -1.6659
H       3.2717  -0.1335  -0.1213
H       -0.7596  -2.2360  -1.0012
H       -1.1911  -0.9801  -1.9505
