27

Co      0.0053  0.0375  -0.0037
Cl      -1.0724  1.5875  -1.2000
Cl      1.1399  1.4108  1.3445
C       2.6338  -0.6983  -0.8261
C       2.1098  -1.9136  -0.1209
C       -2.4980  -1.2809  -0.4390
C       -2.3958  -1.1404  1.0487
N       1.5052  0.0586  -1.3288
N       1.0565  -1.5148  0.8872
N       -1.1247  -1.3597  -1.0370
N       -1.4839  -0.0461  1.3671
H       2.9388  -2.3819  0.3849
H       1.6770  -2.6432  -0.7887
H       -3.0076  -0.4505  -0.8933
H       -3.0501  -2.1806  -0.6563
H       1.7426  1.0263  -1.4462
H       1.1988  -0.2660  -2.2271
H       -1.9407  0.8445  1.2884
H       -1.1363  -0.0998  2.3023
H       -1.9839  -2.0513  1.4616
H       -3.3717  -1.0034  1.4882
H       0.5411  -2.3273  1.1687
H       1.4871  -1.1385  1.7103
H       3.3551  -0.9459  -1.5941
H       3.1274  -0.0800  -0.0936
H       -0.7931  -2.3027  -1.0111
H       -1.1809  -1.0839  -1.9988
