27

Co      0.0017  -0.0029  0.0002
Cl      -1.0797  1.6035  -1.2090
Cl      1.1437  1.4163  1.3502
C       2.6408  -0.6844  -0.7982
C       2.0960  -1.9216  -0.1105
C       -2.5010  -1.2972  -0.4502
C       -2.3973  -1.1404  1.0562
N       1.4746  0.0649  -1.3296
N       1.0677  -1.4723  0.8736
N       -1.1163  -1.3147  -1.0282
N       -1.4522  -0.0369  1.3425
H       2.8767  -2.4864  0.3721
H       1.6133  -2.5740  -0.8274
H       -3.0144  -0.4555  -0.8792
H       -3.0342  -2.1942  -0.7133
H       1.6838  1.0398  -1.4439
H       1.1985  -0.2728  -2.2333
H       -1.8979  0.8609  1.2540
H       -1.0960  -0.0741  2.2757
H       -2.0096  -2.0420  1.5096
H       -3.3665  -0.9525  1.4893
H       0.5516  -2.2540  1.2239
H       1.5168  -1.0402  1.6590
H       3.3337  -0.9450  -1.5836
H       3.1486  -0.0498  -0.0941
H       -0.7626  -2.2494  -1.0345
H       -1.1641  -0.9984  -1.9763
