27

Co      0.0391  0.0289  0.0030
Cl      -1.0714  1.5814  -1.2039
Cl      1.1264  1.3927  1.3303
C       2.5886  -0.6981  -0.8165
C       2.0823  -1.8776  -0.0974
C       -2.4893  -1.3050  -0.4366
C       -2.4139  -1.1238  1.0579
N       1.4812  0.0683  -1.2968
N       1.0584  -1.4788  0.8566
N       -1.1319  -1.3367  -1.0706
N       -1.4778  -0.0492  1.3803
H       2.9702  -2.3366  0.3277
H       1.6171  -2.6006  -0.7487
H       -2.9948  -0.4942  -0.9336
H       -3.0710  -2.2130  -0.5716
H       1.7750  1.0190  -1.4730
H       1.2602  -0.2921  -2.2109
H       -1.9514  0.8362  1.3256
H       -1.1826  -0.1283  2.3348
H       -2.0344  -2.0140  1.5399
H       -3.4233  -0.9708  1.4220
H       0.5596  -2.2990  1.1485
H       1.5487  -1.1665  1.6818
H       3.3124  -1.0635  -1.5406
H       3.1022  -0.0463  -0.1331
H       -0.8670  -2.3034  -1.1477
H       -1.2603  -1.0179  -2.0176
