27

Co      0.0345  0.0249  0.0125
Cl      -1.0848  1.5976  -1.2127
Cl      1.1215  1.3864  1.3150
C       2.6467  -0.7100  -0.8440
C       2.1412  -1.9369  -0.0739
C       -2.5180  -1.3032  -0.4496
C       -2.4162  -1.1507  1.0678
N       1.4668  0.0958  -1.2632
N       1.0477  -1.4763  0.8373
N       -1.1318  -1.3195  -1.0342
N       -1.4753  -0.0319  1.3532
H       2.9823  -2.4098  0.4097
H       1.6837  -2.6620  -0.7326
H       -2.9876  -0.4519  -0.9109
H       -3.1090  -2.1852  -0.6564
H       1.7479  1.0550  -1.3901
H       1.2406  -0.2142  -2.1919
H       -1.9694  0.8400  1.2642
H       -1.1830  -0.0635  2.3121
H       -2.0035  -2.0302  1.5447
H       -3.4071  -0.9977  1.4735
H       0.5142  -2.2706  1.1412
H       1.5288  -1.1533  1.6644
H       3.2969  -1.0527  -1.6364
H       3.2107  -0.0537  -0.2009
H       -0.8446  -2.2789  -1.0694
H       -1.2227  -1.0256  -1.9919
