27

Co      -0.0041  -0.0301  -0.0020
Cl      -1.1125  1.6479  -1.2340
Cl      1.1808  1.4725  1.3858
C       2.7339  -0.7084  -0.8261
C       2.1671  -1.9896  -0.0984
C       -2.5625  -1.3258  -0.4532
C       -2.4482  -1.1824  1.0797
N       1.4988  0.0760  -1.3252
N       1.0817  -1.4732  0.8603
N       -1.1585  -1.3091  -1.0184
N       -1.4927  -0.0362  1.3328
H       2.8932  -2.5989  0.4304
H       1.6700  -2.6175  -0.8322
H       -3.0567  -0.4504  -0.8472
H       -3.0994  -2.2039  -0.7830
H       1.6913  1.0628  -1.3816
H       1.2403  -0.2114  -2.2484
H       -1.9493  0.8514  1.2015
H       -1.1420  -0.0281  2.2761
H       -2.0495  -2.0697  1.5507
H       -3.4087  -0.9790  1.5242
H       0.5425  -2.2300  1.2395
H       1.5276  -1.0094  1.6334
H       3.3754  -0.9509  -1.6593
H       3.2751  -0.0639  -0.1516
H       -0.7871  -2.2422  -1.0496
H       -1.1967  -0.9662  -1.9594
