27

Co      0.0258  0.0092  0.0167
Cl      -1.0837  1.6043  -1.2193
Cl      1.1184  1.3836  1.3197
C       2.6157  -0.6999  -0.8036
C       2.0848  -1.8780  -0.0845
C       -2.4826  -1.3031  -0.4400
C       -2.4157  -1.1379  1.0635
N       1.5055  0.0864  -1.3530
N       1.0714  -1.4969  0.8647
N       -1.1117  -1.3102  -1.0389
N       -1.4789  -0.0344  1.3869
H       2.8943  -2.4153  0.3778
H       1.6281  -2.5460  -0.8009
H       -3.0008  -0.4667  -0.8688
H       -3.0168  -2.2008  -0.7006
H       1.7505  1.0506  -1.4640
H       1.2276  -0.2427  -2.2587
H       -1.9196  0.8643  1.3149
H       -1.1308  -0.1021  2.3212
H       -2.0552  -2.0356  1.5483
H       -3.4090  -0.9427  1.4459
H       0.5304  -2.3014  1.1213
H       1.4782  -1.1276  1.7054
H       3.2544  -1.0763  -1.5922
H       3.2053  -0.0664  -0.1676
H       -0.7599  -2.2434  -1.0866
H       -1.1786  -0.9589  -1.9753
