27

Co      -0.0009  -0.0089  -0.0026
Cl      -1.1058  1.6467  -1.2334
Cl      1.1757  1.4672  1.3831
C       2.6708  -0.7122  -0.8045
C       2.1419  -1.9520  -0.1137
C       -2.5430  -1.3208  -0.4452
C       -2.4311  -1.1615  1.0588
N       1.4936  0.0481  -1.3101
N       1.0927  -1.4998  0.8539
N       -1.1535  -1.3359  -1.0179
N       -1.4710  -0.0611  1.3290
H       2.9270  -2.4934  0.3931
H       1.6836  -2.6242  -0.8246
H       -3.0576  -0.4796  -0.8774
H       -3.0734  -2.2213  -0.7126
H       1.7132  1.0244  -1.4070
H       1.2189  -0.2660  -2.2194
H       -1.9144  0.8362  1.2377
H       -1.1148  -0.0962  2.2664
H       -2.0529  -2.0642  1.5162
H       -3.3940  -0.9563  1.4959
H       0.5777  -2.2851  1.2001
H       1.5328  -1.0644  1.6441
H       3.3486  -0.9628  -1.6044
H       3.1930  -0.0807  -0.1056
H       -0.7951  -2.2717  -1.0157
H       -1.2009  -1.0336  -1.9714
