27

Co      -0.0284  -0.0099  -0.0106
Cl      -1.1001  1.6291  -1.2219
Cl      1.1828  1.4740  1.3859
C       2.7502  -0.7279  -0.8258
C       2.1905  -1.9966  -0.1053
C       -2.5498  -1.3069  -0.4456
C       -2.4449  -1.1926  1.0780
N       1.5234  0.0663  -1.3344
N       1.0836  -1.4919  0.8356
N       -1.1461  -1.3177  -1.0004
N       -1.5182  -0.0305  1.3555
H       2.8711  -2.5752  0.5229
H       1.7685  -2.6597  -0.8516
H       -3.0607  -0.4216  -0.7951
H       -3.0519  -2.1813  -0.8532
H       1.6922  1.0604  -1.3405
H       1.1742  -0.1823  -2.2416
H       -1.9514  0.8652  1.2220
H       -1.1137  -0.0266  2.2768
H       -2.0459  -2.0962  1.5150
H       -3.3943  -0.9902  1.5451
H       0.5086  -2.2412  1.1719
H       1.4388  -0.9768  1.6298
H       3.3355  -0.9189  -1.7209
H       3.3375  -0.1222  -0.1522
H       -0.7024  -2.2232  -0.9633
H       -1.1417  -0.9930  -1.9480
