27

Co      0.0373  0.0350  0.0013
Cl      -1.0869  1.6001  -1.2121
Cl      1.1450  1.4192  1.3475
C       2.6575  -0.7116  -0.8210
C       2.1336  -1.9389  -0.0972
C       -2.5370  -1.3156  -0.4420
C       -2.4391  -1.1640  1.0669
N       1.4936  0.0722  -1.3125
N       1.0723  -1.4912  0.8538
N       -1.1618  -1.3605  -1.0548
N       -1.5108  -0.0423  1.3789
H       2.9257  -2.4514  0.4223
H       1.6897  -2.6346  -0.7935
H       -3.0354  -0.4606  -0.8635
H       -3.1005  -2.1973  -0.7020
H       1.7381  1.0379  -1.4458
H       1.1794  -0.2613  -2.2054
H       -1.9683  0.8457  1.2851
H       -1.1722  -0.0876  2.3205
H       -2.0506  -2.0614  1.5253
H       -3.4214  -0.9906  1.4806
H       0.5022  -2.2711  1.1289
H       1.4899  -1.1153  1.6845
H       3.3113  -0.9878  -1.6324
H       3.2103  -0.0827  -0.1431
H       -0.8236  -2.3017  -1.0832
H       -1.2328  -1.0358  -2.0015
