27

Co      -0.0021  -0.0178  0.0030
Cl      -1.1023  1.6322  -1.2290
Cl      1.1723  1.4626  1.3723
C       2.6773  -0.7256  -0.8250
C       2.1610  -1.9491  -0.0979
C       -2.5613  -1.3294  -0.4417
C       -2.4349  -1.1550  1.0571
N       1.4956  0.0656  -1.2716
N       1.0887  -1.4788  0.8359
N       -1.1701  -1.2948  -1.0128
N       -1.4566  -0.0635  1.2972
H       2.9460  -2.4508  0.4486
H       1.7284  -2.6631  -0.7850
H       -3.1157  -0.5176  -0.8809
H       -3.0487  -2.2598  -0.6982
H       1.7242  1.0447  -1.3119
H       1.2153  -0.1894  -2.1973
H       -1.8931  0.8360  1.1889
H       -1.1080  -0.0812  2.2368
H       -2.0636  -2.0569  1.5222
H       -3.3872  -0.9246  1.5077
H       0.5744  -2.2619  1.1887
H       1.5201  -1.0294  1.6251
H       3.3003  -0.9953  -1.6639
H       3.2572  -0.1076  -0.1594
H       -0.7995  -2.2250  -1.0487
H       -1.2262  -0.9557  -1.9550
