27

Co      -0.0044  -0.0234  0.0029
Cl      -1.0938  1.6120  -1.2149
Cl      1.1611  1.4434  1.3608
C       2.6914  -0.7213  -0.8320
C       2.1459  -1.9294  -0.1005
C       -2.5417  -1.2991  -0.4374
C       -2.4286  -1.1655  1.0655
N       1.5165  0.0677  -1.2959
N       1.0701  -1.4502  0.8251
N       -1.1461  -1.2744  -0.9952
N       -1.4885  -0.0455  1.3093
H       2.9132  -2.4459  0.4550
H       1.7075  -2.6350  -0.7925
H       -3.0724  -0.4631  -0.8544
H       -3.0418  -2.2097  -0.7292
H       1.7374  1.0486  -1.3300
H       1.2475  -0.1885  -2.2252
H       -1.9419  0.8407  1.1563
H       -1.1596  -0.0224  2.2570
H       -2.0216  -2.0621  1.5131
H       -3.3881  -0.9793  1.5197
H       0.5533  -2.2315  1.1793
H       1.4987  -1.0000  1.6141
H       3.3184  -1.0118  -1.6605
H       3.2704  -0.1007  -0.1689
H       -0.7803  -2.2070  -1.0235
H       -1.1921  -0.9388  -1.9390
