27

Co      0.0269  0.0151  0.0166
Cl      -1.0835  1.6089  -1.2112
Cl      1.1402  1.4163  1.3435
C       2.6046  -0.7048  -0.8138
C       2.0961  -1.8839  -0.1099
C       -2.5063  -1.2910  -0.4487
C       -2.3810  -1.1318  1.0402
N       1.4730  0.0429  -1.2679
N       1.0494  -1.4651  0.8155
N       -1.1403  -1.3804  -1.0504
N       -1.4543  -0.0456  1.3356
H       2.9646  -2.3416  0.3490
H       1.6494  -2.6134  -0.7683
H       -2.9726  -0.4536  -0.9372
H       -3.1260  -2.1759  -0.5901
H       1.7530  0.9976  -1.4563
H       1.2427  -0.3254  -2.1756
H       -1.9386  0.8320  1.2520
H       -1.1715  -0.0898  2.2964
H       -1.9593  -2.0230  1.4853
H       -3.3674  -1.0042  1.4600
H       0.5501  -2.2816  1.1143
H       1.5387  -1.1538  1.6422
H       3.3201  -1.0495  -1.5499
H       3.1173  -0.0528  -0.1275
H       -0.8911  -2.3544  -1.0586
H       -1.2303  -1.1204  -2.0178
