27

Co      -0.0373  -0.0316  -0.0030
Cl      -1.0967  1.6341  -1.2206
Cl      1.1745  1.4629  1.3804
C       2.6828  -0.7078  -0.8072
C       2.1342  -1.9379  -0.1174
C       -2.5265  -1.2910  -0.4486
C       -2.3996  -1.1600  1.0522
N       1.5066  0.0495  -1.3219
N       1.0841  -1.4841  0.8498
N       -1.1233  -1.2884  -0.9746
N       -1.4516  -0.0483  1.2914
H       2.9073  -2.4939  0.3929
H       1.6709  -2.6040  -0.8329
H       -3.0405  -0.4462  -0.8720
H       -3.0367  -2.1941  -0.7432
H       1.7100  1.0338  -1.3707
H       1.2652  -0.2334  -2.2508
H       -1.9049  0.8430  1.1770
H       -1.0911  -0.0467  2.2265
H       -1.9842  -2.0616  1.4841
H       -3.3483  -0.9768  1.5282
H       0.6082  -2.2764  1.2394
H       1.5323  -1.0104  1.6166
H       3.3608  -0.9719  -1.6028
H       3.2052  -0.0765  -0.1105
H       -0.7470  -2.2182  -0.9271
H       -1.1386  -1.0166  -1.9385
