27

Co      -0.0290  -0.0287  -0.0163
Cl      -1.0952  1.6238  -1.2139
Cl      1.1981  1.5003  1.4056
C       2.6991  -0.7318  -0.8223
C       2.1668  -1.9535  -0.1112
C       -2.5554  -1.3036  -0.4407
C       -2.4282  -1.1755  1.0615
N       1.5111  0.0459  -1.2882
N       1.0783  -1.4729  0.8045
N       -1.1595  -1.3077  -0.9926
N       -1.4874  -0.0528  1.2983
H       2.9366  -2.4602  0.4582
H       1.7471  -2.6644  -0.8077
H       -3.0676  -0.4540  -0.8567
H       -3.0771  -2.2017  -0.7360
H       1.7315  1.0292  -1.3212
H       1.2558  -0.2091  -2.2207
H       -1.9445  0.8327  1.1647
H       -1.1376  -0.0384  2.2398
H       -2.0131  -2.0718  1.5002
H       -3.3815  -0.9940  1.5274
H       0.5773  -2.2557  1.1789
H       1.5042  -1.0007  1.5843
H       3.3410  -0.9913  -1.6469
H       3.2550  -0.1063  -0.1427
H       -0.7899  -2.2418  -0.9697
H       -1.1965  -1.0245  -1.9542
