27

Co      0.0281  0.0185  0.0159
Cl      -1.0934  1.6169  -1.2206
Cl      1.1514  1.4301  1.3528
C       2.6632  -0.7100  -0.8235
C       2.1327  -1.9324  -0.1005
C       -2.5381  -1.3207  -0.4511
C       -2.4156  -1.1483  1.0559
N       1.4912  0.0674  -1.3016
N       1.0686  -1.4819  0.8493
N       -1.1727  -1.3914  -1.0834
N       -1.4838  -0.0324  1.3710
H       2.9156  -2.4556  0.4222
H       1.6831  -2.6219  -0.8002
H       -3.0354  -0.4697  -0.8807
H       -3.1194  -2.2024  -0.6803
H       1.7239  1.0358  -1.4331
H       1.1715  -0.2661  -2.1927
H       -1.9337  0.8605  1.2839
H       -1.1453  -0.0855  2.3126
H       -2.0239  -2.0448  1.5121
H       -3.3912  -0.9736  1.4803
H       0.5034  -2.2635  1.1252
H       1.4888  -1.1073  1.6797
H       3.3072  -0.9891  -1.6414
H       3.2249  -0.0819  -0.1516
H       -0.8502  -2.3385  -1.1292
H       -1.2423  -1.0480  -2.0232
