27

Co      -0.0149  0.0021  -0.0279
Cl      -1.0798  1.5908  -1.2033
Cl      1.1809  1.4702  1.3857
C       2.7000  -0.7159  -0.8374
C       2.1734  -1.9880  -0.1063
C       -2.5628  -1.3261  -0.4381
C       -2.4552  -1.1656  1.0701
N       1.4884  0.0691  -1.2838
N       1.0719  -1.4772  0.8574
N       -1.1591  -1.2630  -0.9982
N       -1.4761  -0.0697  1.3068
H       2.9468  -2.4855  0.4641
H       1.7331  -2.7097  -0.7798
H       -3.1270  -0.5172  -0.8771
H       -3.0257  -2.2631  -0.7147
H       1.7066  1.0522  -1.3160
H       1.2130  -0.1810  -2.2135
H       -1.9211  0.8269  1.2050
H       -1.1113  -0.0843  2.2407
H       -2.0804  -2.0695  1.5277
H       -3.4083  -0.9401  1.5219
H       0.5606  -2.2462  1.2519
H       1.5202  -0.9968  1.6208
H       3.3691  -0.9073  -1.6677
H       3.2173  -0.0951  -0.1214
H       -0.7671  -2.1864  -1.0173
H       -1.2195  -0.9415  -1.9466
