27

Co      0.0000  -0.0640  -0.0633
Cl      0.0002  -2.2528  -0.2078
Cl      -0.0001  2.3477  0.2241
N       -1.4836  0.1584  -1.4278
N       -1.5818  -0.1373  1.4779
N       1.4836  0.1583  -1.4277
N       1.5817  -0.1368  1.4779
C       -2.7156  0.3930  -0.5897
C       -2.7894  -0.4230  0.6499
C       2.7157  0.3930  -0.5898
C       2.7894  -0.4226  0.6501
H       -1.2044  1.0281  -1.8905
H       -2.8289  1.4243  -0.2890
H       -3.4428  0.1730  -1.3767
H       -3.5599  -0.1066  1.3444
H       -2.9461  -1.4604  0.4084
H       -1.3852  0.8112  1.8719
H       -1.3156  -0.8724  2.0881
H       1.3209  -0.6760  -2.0025
H       1.2046  1.0278  -1.8907
H       3.4427  0.1726  -1.3768
H       2.8290  1.4243  -0.2896
H       2.9464  -1.4600  0.4090
H       3.5531  -0.1057  1.3513
H       1.3155  -0.8716  2.0885
H       1.3782  0.8119  1.8716
H       -1.3209  -0.6726  -2.0029
