27

Co      0.0736  -0.0092  0.0583
Cl      -0.0096  -2.2198  -0.2164
Cl      -0.0099  2.2260  0.2104
N       -1.4472  0.1342  -1.2950
N       -1.4669  -0.1404  1.3502
N       1.5258  0.1390  -1.4888
N       1.3098  -0.1449  1.3231
C       -2.7568  0.4169  -0.6453
C       -2.7571  -0.4076  0.6195
C       2.7472  0.4292  -0.6896
C       2.6001  -0.3753  0.6050
H       -1.2456  0.8489  -1.9640
H       -2.8187  1.4747  -0.4361
H       -3.5764  0.1475  -1.2836
H       -3.5985  -0.1869  1.2555
H       -2.7764  -1.4593  0.3834
H       -1.5456  0.7235  1.8460
H       -1.3381  -0.8752  2.0262
H       1.5998  -0.7346  -1.9728
H       1.3342  0.8633  -2.1483
H       3.6598  0.1177  -1.1905
H       2.7944  1.4870  -0.5128
H       2.6050  -1.4270  0.3570
H       3.4168  -0.1861  1.2802
H       1.1319  -0.9481  1.9013
H       1.3539  0.6727  1.9069
H       -1.4967  -0.7447  -1.7794
