27

Co      -0.0376  -0.0640  -0.0633
Cl      0.0002  -2.3250  -0.2216
Cl      -0.0001  2.4199  0.2379
N       -1.6038  0.1154  -1.3387
N       -1.5841  -0.0943  1.2783
N       1.5475  0.1415  -1.3784
N       1.7634  -0.1199  1.5390
C       -2.7304  0.4513  -0.5651
C       -2.7306  -0.4592  0.5959
C       2.6569  0.4224  -0.5494
C       2.8043  -0.4740  0.6392
H       -1.3111  0.8503  -1.9727
H       -2.9065  1.5016  -0.3504
H       -3.5717  0.0857  -1.1448
H       -3.5495  -0.0340  1.1783
H       -2.9501  -1.5113  0.4183
H       -1.8033  0.8049  1.7023
H       -1.2750  -0.7241  2.0156
H       1.8289  -0.6355  -2.0194
H       1.2870  0.9328  -1.9424
H       3.5074  0.0876  -1.1356
H       2.8181  1.4628  -0.3256
H       3.0091  -1.5206  0.4967
H       3.7503  -0.0060  1.0512
H       1.5452  -0.7472  2.2947
H       2.0334  0.7935  1.9548
H       -1.8930  -0.6884  -1.8995
