27

Co      0.0000  0.0000  0.0000
Cl      0.0002  -2.2172  -0.2021
Cl      -0.0001  2.2173  0.2022
N       -1.3081  0.1804  -1.3401
N       -1.4260  -0.1806  1.4504
N       1.4260  0.1747  -1.4504
N       1.3081  -0.1745  1.3400
C       -2.7389  0.3954  -0.6912
C       -2.8127  -0.4167  0.7206
C       2.8126  0.4174  -0.7207
C       2.7391  -0.3942  0.6914
H       -1.0816  0.9885  -1.8906
H       -2.8041  1.4515  -0.5044
H       -3.4897  0.1273  -1.4239
H       -3.6222  -0.1114  1.3652
H       -2.8784  -1.4771  0.5560
H       -1.4629  0.6586  2.0011
H       -1.2293  -0.9596  2.0448
H       1.4688  -0.6593  -1.9948
H       1.2291  0.9531  -2.0511
H       3.6222  0.1178  -1.3652
H       2.8722  1.4834  -0.5510
H       2.7994  -1.4602  0.4995
H       3.4896  -0.1309  1.4242
H       1.0820  -0.9826  1.8962
H       1.3210  0.6373  1.9289
H       -1.3159  -0.6369  -1.9345
