27

Co      0.0000  -0.0092  0.0583
Cl      0.0002  -2.2090  -0.2164
Cl      -0.0001  2.2152  0.2104
N       -1.4542  0.1295  -1.3058
N       -1.3560  -0.1357  1.2505
N       1.4542  0.1294  -1.3057
N       1.3560  -0.1352  1.2505
C       -2.7591  0.4267  -0.6602
C       -2.6858  -0.3953  0.6050
C       2.7592  0.4266  -0.6603
C       2.6857  -0.3948  0.6052
H       -1.2468  0.8276  -1.9951
H       -2.8316  1.4844  -0.4669
H       -3.5858  0.1256  -1.2765
H       -3.4754  -0.1798  1.3073
H       -2.7157  -1.4469  0.3627
H       -1.4104  0.7193  1.7690
H       -1.1920  -0.8833  1.9026
H       1.5088  -0.7598  -1.7683
H       1.2470  0.8273  -1.9953
H       3.5858  0.1253  -1.2766
H       2.8317  1.4844  -0.4676
H       2.7160  -1.4465  0.3633
H       3.4753  -0.1789  1.3074
H       1.1919  -0.8825  1.9029
H       1.4101  0.7200  1.7687
H       -1.5088  -0.7626  -1.7687
