27

Co      0.0000  0.0000  0.0000
Cl      0.0002  -2.3318  -0.2127
Cl      -0.0001  2.3319  0.2128
N       -1.2981  0.1824  -1.2789
N       -1.2981  -0.1825  1.2788
N       1.2981  0.1767  -1.2788
N       1.2980  -0.1764  1.2789
C       -2.7874  0.4007  -0.7258
C       -2.7877  -0.3999  0.7258
C       2.7875  0.4006  -0.7260
C       2.7876  -0.3995  0.7260
H       -1.1813  0.9202  -1.9555
H       -2.7761  1.4771  -0.6162
H       -3.6496  0.1070  -1.3083
H       -3.6428  -0.1059  1.3153
H       -2.7767  -1.4806  0.6162
H       -1.5428  0.6126  1.8868
H       -1.1818  -0.9207  1.9551
H       1.5554  -0.6133  -1.8805
H       1.1815  0.9142  -1.9614
H       3.6496  0.1123  -1.3085
H       2.7706  1.4870  -0.6112
H       2.7714  -1.4859  0.6112
H       3.6495  -0.1107  1.3086
H       1.1817  -0.9143  1.9610
H       1.5549  0.6134  1.8808
H       -1.5498  -0.6130  -1.8865
