27

Co      -0.0376  -0.0640  -0.0633
Cl      0.0002  -2.3194  -0.2104
Cl      -0.0001  2.4143  0.2267
N       -1.5205  0.1626  -1.3696
N       -1.5008  -0.1415  1.3092
N       1.4642  0.1831  -1.4093
N       1.6801  -0.1615  1.5700
C       -2.8104  0.3981  -0.6247
C       -2.8106  -0.4060  0.6555
C       2.7368  0.3692  -0.6090
C       2.8843  -0.4208  0.6988
H       -1.3338  0.9726  -1.9435
H       -2.8501  1.4498  -0.4003
H       -3.6490  0.1553  -1.2611
H       -3.6268  -0.1037  1.2945
H       -2.8937  -1.4638  0.4682
H       -1.5056  0.7527  1.7677
H       -1.2977  -0.8464  1.9865
H       1.5369  -0.5833  -2.0793
H       1.3096  1.0495  -1.9189
H       3.5847  0.1629  -1.2518
H       2.7561  1.4209  -0.3699
H       2.9472  -1.4787  0.5409
H       3.8276  -0.0812  1.1675
H       1.5678  -0.8639  2.2712
H       1.7414  0.7413  2.0146
H       -1.5954  -0.6362  -1.9650
