27

Co      0.0000  0.0732  0.0050
Cl      0.0002  -2.2677  -0.2072
Cl      -0.0001  2.1668  0.1972
N       -1.3475  0.2258  -1.4060
N       -1.3475  -0.2411  1.4110
N       1.3475  0.2201  -1.4060
N       1.3474  -0.2350  1.4110
C       -2.7885  0.3678  -0.7086
C       -2.7887  -0.3671  0.7035
C       2.7886  0.3678  -0.7087
C       2.7887  -0.3667  0.7037
H       -1.3923  0.8561  -2.2331
H       -2.7582  1.4239  -0.4994
H       -3.6136  0.1653  -1.3777
H       -3.6136  -0.1743  1.3728
H       -2.7589  -1.4274  0.4842
H       -1.1883  0.6987  1.8152
H       -1.3372  -0.9576  2.1266
H       1.1538  -0.7953  -1.6776
H       1.3925  0.8502  -2.2323
H       3.6136  0.1772  -1.3779
H       2.7527  1.4338  -0.4944
H       2.7536  -1.4327  0.4793
H       3.6135  -0.1857  1.3730
H       1.3305  -0.9512  2.1260
H       1.1937  0.6995  1.8092
H       -1.1482  -0.7950  -1.6836
