27

Co      0.0000  -0.0732  -0.0050
Cl      0.0002  -2.1802  -0.2028
Cl      -0.0001  2.2812  0.2130
N       -1.5241  0.1015  -1.3651
N       -1.5241  -0.0864  1.3600
N       1.5241  0.1014  -1.3651
N       1.5241  -0.0859  1.3600
C       -2.8540  0.4059  -0.5494
C       -2.8542  -0.4052  0.5544
C       2.8541  0.4059  -0.5495
C       2.8542  -0.4048  0.5546
H       -0.9348  1.0562  -1.6577
H       -2.9912  1.4390  -0.2771
H       -3.7201  0.0635  -1.1001
H       -3.7269  -0.0523  1.0986
H       -2.9918  -1.4383  0.2923
H       -1.2790  0.7685  1.9117
H       -0.9908  -0.9558  1.7633
H       1.3129  -0.6732  -2.0423
H       0.9350  1.0559  -1.6646
H       3.7201  0.0565  -1.0960
H       2.9956  1.4390  -0.2778
H       2.9964  -1.4379  0.2929
H       3.7200  -0.0448  1.1012
H       0.9974  -0.9550  1.7703
H       1.2720  0.7692  1.9114
H       -1.3129  -0.6729  -2.0427
