27

Co      0.0000  0.0000  0.0000
Cl      0.0002  -2.3029  -0.2217
Cl      -0.0001  2.3029  0.2218
N       -1.6445  0.0667  -1.2762
N       -1.6445  -0.0668  1.2761
N       1.6445  0.0723  -1.2761
N       1.6444  -0.0720  1.2762
C       -2.7977  0.4425  -0.5735
C       -2.7979  -0.4418  0.5735
C       2.7978  0.4425  -0.5736
C       2.7979  -0.4414  0.5737
H       -1.2797  0.8897  -1.7910
H       -2.9406  1.4958  -0.3702
H       -3.6371  0.1015  -1.1655
H       -3.6371  -0.1004  1.1657
H       -2.9412  -1.4909  0.3702
H       -1.9316  0.6632  1.9728
H       -1.2801  -0.8902  1.7906
H       1.9262  -0.6639  -1.9777
H       1.2799  0.8950  -1.7923
H       3.6371  0.0889  -1.1657
H       2.9463  1.4860  -0.3765
H       2.9471  -1.4849  0.3765
H       3.6370  -0.0873  1.1658
H       1.2867  -0.8951  1.7920
H       1.9257  0.6640  1.9781
H       -1.9318  -0.6636  -1.9725
