27

Co      0.0000  -0.0640  -0.0633
Cl      0.0002  -2.1940  -0.1998
Cl      -0.0001  2.2889  0.2161
N       -1.5019  0.1705  -1.3994
N       -1.6000  -0.1494  1.4495
N       1.5019  0.1705  -1.3994
N       1.6000  -0.1489  1.4495
C       -2.7758  0.3862  -0.6168
C       -2.8497  -0.4162  0.6771
C       2.7759  0.3862  -0.6169
C       2.8497  -0.4158  0.6773
H       -1.3339  1.0090  -1.9435
H       -2.7981  1.4379  -0.3798
H       -3.6265  0.1718  -1.2464
H       -3.7369  -0.1054  1.2209
H       -2.9153  -1.4740  0.4992
H       -1.6409  0.7489  1.9005
H       -1.4450  -0.8533  2.1411
H       1.5834  -0.6137  -2.0311
H       1.3341  1.0087  -1.9438
H       3.6265  0.1714  -1.2465
H       2.7982  1.4379  -0.3804
H       2.9156  -1.4736  0.4999
H       3.7368  -0.1045  1.2210
H       1.4450  -0.8525  2.1415
H       1.6406  0.7496  1.9002
H       -1.5834  -0.6104  -2.0315
