27

Co      0.1111  0.0000  0.0000
Cl      -0.0096  -2.2121  -0.2133
Cl      -0.0099  2.2122  0.2134
N       -1.4555  0.1403  -1.3116
N       -1.4554  -0.1404  1.3115
N       1.3548  0.1247  -1.2447
N       1.3547  -0.1244  1.2447
C       -2.7640  0.4128  -0.6321
C       -2.7642  -0.4121  0.6320
C       2.6807  0.4098  -0.6332
C       2.6809  -0.4087  0.6333
H       -1.3100  0.8570  -1.9992
H       -2.8121  1.4675  -0.4128
H       -3.5893  0.1572  -1.2748
H       -3.5892  -0.1561  1.2750
H       -2.8128  -1.4668  0.4128
H       -1.5259  0.7384  1.7974
H       -1.3105  -0.8576  1.9987
H       1.3933  -0.7437  -1.7432
H       1.1285  0.8530  -1.8991
H       3.4719  0.1489  -1.3089
H       2.7346  1.4646  -0.4174
H       2.7355  -1.4635  0.4175
H       3.4719  -0.1474  1.3091
H       1.1286  -0.8531  1.8988
H       1.3928  0.7438  1.7436
H       -1.5262  -0.7388  -1.7971
