27

Co      0.1111  0.0000  0.0000
Cl      -0.0096  -2.2709  -0.2214
Cl      -0.0099  2.2709  0.2215
N       -1.3829  0.1418  -1.2993
N       -1.3829  -0.1419  1.2992
N       1.2822  0.1261  -1.2324
N       1.2822  -0.1258  1.2324
C       -2.7174  0.4060  -0.6592
C       -2.7176  -0.4053  0.6592
C       2.6341  0.4030  -0.6604
C       2.6342  -0.4019  0.6604
H       -1.3433  0.8219  -2.0683
H       -2.6530  1.4811  -0.4983
H       -3.6768  0.1720  -1.1338
H       -3.6700  -0.1709  1.1408
H       -2.6537  -1.4804  0.4983
H       -1.6908  0.6922  1.8367
H       -1.3438  -0.8224  2.0678
H       1.5649  -0.6975  -1.7825
H       1.1618  0.8179  -1.9682
H       3.5595  0.1637  -1.1679
H       2.5755  1.4781  -0.5029
H       2.5764  -1.4770  0.5030
H       3.5594  -0.1621  1.1681
H       1.1619  -0.8180  1.9679
H       1.5644  0.6976  1.7829
H       -1.6978  -0.6925  -1.8364
