27

Co      0.0000  0.0732  0.0050
Cl      0.0002  -2.3322  -0.2264
Cl      -0.0001  2.2312  0.2164
N       -1.3853  0.1733  -1.3831
N       -1.3853  -0.1885  1.3880
N       1.3854  0.1732  -1.3830
N       1.3853  -0.1880  1.3881
C       -2.6551  0.4210  -0.6489
C       -2.6553  -0.4203  0.6439
C       2.6551  0.4210  -0.6491
C       2.6553  -0.4199  0.6441
H       -1.3216  0.7258  -2.2703
H       -2.7505  1.4757  -0.4468
H       -3.4883  0.1036  -1.2561
H       -3.4882  -0.1126  1.2512
H       -2.7511  -1.4750  0.4317
H       -1.4405  0.7589  1.7551
H       -1.2665  -0.8273  2.1638
H       1.4004  -0.8555  -1.6231
H       1.3218  0.7255  -2.2639
H       3.4882  0.1099  -1.2563
H       2.7506  1.4757  -0.4474
H       2.7514  -1.4746  0.4323
H       3.4882  -0.1184  1.2514
H       1.2597  -0.8265  2.1575
H       1.4403  0.7597  1.7548
H       -1.4004  -0.8552  -1.6235
