27

Co      0.0376  -0.0092  0.0583
Cl      0.0002  -2.3452  -0.2270
Cl      -0.0001  2.3514  0.2210
N       -1.4487  0.1492  -1.4019
N       -1.4684  -0.1555  1.4571
N       1.5051  0.1287  -1.3621
N       1.2891  -0.1345  1.1964
C       -2.7129  0.4060  -0.6595
C       -2.7132  -0.3968  0.6337
C       2.7866  0.4349  -0.6754
C       2.6395  -0.3811  0.5908
H       -1.2654  0.8971  -2.0312
H       -2.7644  1.4638  -0.4636
H       -3.5763  0.1243  -1.2423
H       -3.5984  -0.1637  1.2142
H       -2.7222  -1.4484  0.4109
H       -1.5506  0.6895  1.9945
H       -1.3579  -0.9234  2.0933
H       1.5603  -0.7641  -1.8128
H       1.2900  0.8196  -2.0563
H       3.6405  0.1160  -1.2518
H       2.8587  1.4928  -0.4953
H       2.6693  -1.4328  0.3395
H       3.3975  -0.1844  1.3416
H       1.0876  -0.9043  1.8093
H       1.3143  0.7023  1.7469
H       -1.5018  -0.7107  -1.9279
