27

Co      0.0000  0.0000  0.0000
Cl      0.0002  -2.2414  -0.2079
Cl      -0.0001  2.2415  0.2080
N       -1.5510  0.1599  -1.4245
N       -1.5510  -0.1600  1.4244
N       1.5510  0.1598  -1.4244
N       1.5509  -0.1595  1.4245
C       -2.8126  0.4016  -0.6469
C       -2.8129  -0.4009  0.6469
C       2.8127  0.4015  -0.6471
C       2.8129  -0.4004  0.6471
H       -1.3892  0.9309  -2.0426
H       -2.8563  1.4563  -0.4395
H       -3.6817  0.1391  -1.2336
H       -3.6817  -0.1380  1.2337
H       -2.8570  -1.4556  0.4395
H       -1.6120  0.6794  1.9662
H       -1.3897  -0.9314  2.0421
H       1.6123  -0.6801  -1.9654
H       1.3894  0.9306  -2.0428
H       3.6817  0.1387  -1.2337
H       2.8565  1.4563  -0.4401
H       2.8573  -1.4552  0.4402
H       3.6816  -0.1371  1.2338
H       1.3896  -0.9306  2.0425
H       1.6117  0.6802  1.9658
H       -1.6123  -0.6798  -1.9658
