27

Co      0.0376  -0.0092  0.0583
Cl      0.0002  -2.2678  -0.2244
Cl      -0.0001  2.2740  0.2184
N       -1.3739  0.1808  -1.3470
N       -1.3936  -0.1871  1.4021
N       1.4303  0.1603  -1.3071
N       1.2143  -0.1661  1.1415
C       -2.6622  0.4255  -0.6589
C       -2.6625  -0.4162  0.6332
C       2.7359  0.4544  -0.6749
C       2.5888  -0.4005  0.5903
H       -1.2662  0.7586  -2.1898
H       -2.7868  1.4832  -0.4687
H       -3.4790  0.0779  -1.2731
H       -3.5011  -0.1172  1.2450
H       -2.7445  -1.4678  0.4159
H       -1.4498  0.8009  1.7071
H       -1.3587  -0.7849  2.2520
H       1.4594  -0.8756  -1.5254
H       1.2907  0.6810  -2.2083
H       3.5433  0.0762  -1.2826
H       2.8810  1.5122  -0.5003
H       2.6917  -1.4522  0.3446
H       3.3002  -0.1446  1.3723
H       1.0817  -0.7658  1.9613
H       1.2135  0.8137  1.4596
H       -1.4009  -0.8222  -1.6405
