27

Co      0.0000  0.0000  0.0000
Cl      0.0002  -2.2121  -0.2133
Cl      -0.0001  2.2122  0.2134
N       -1.3433  0.1813  -1.3168
N       -1.3433  -0.1814  1.3167
N       1.3433  0.1812  -1.3168
N       1.3432  -0.1809  1.3168
C       -2.7901  0.4108  -0.6708
C       -2.7903  -0.4101  0.6707
C       2.7901  0.4107  -0.6709
C       2.7903  -0.4096  0.6710
H       -1.3440  0.7711  -2.1865
H       -2.6822  1.4612  -0.3891
H       -3.6094  0.3093  -1.3866
H       -3.6094  -0.3082  1.3867
H       -2.6828  -1.4647  0.3891
H       -1.1961  0.8525  1.5632
H       -1.3444  -0.7716  2.1861
H       1.1963  -0.8532  -1.5625
H       1.3442  0.7708  -2.1801
H       3.6094  0.3155  -1.3867
H       2.6823  1.4655  -0.3897
H       2.6831  -1.4644  0.3897
H       3.6093  -0.3140  1.3869
H       1.3377  -0.7709  2.1798
H       1.1958  0.8533  1.5629
H       -1.1963  -0.8529  -1.5629
