27

Co      -0.1111  -0.0732  -0.0050
Cl      0.0101  -2.2497  -0.2109
Cl      0.0097  2.3508  0.2211
N       -1.4823  0.1476  -1.4220
N       -1.4823  -0.1325  1.4168
N       1.5830  0.1631  -1.4888
N       1.5830  -0.1476  1.4837
C       -2.7107  0.4069  -0.6178
C       -2.7110  -0.4062  0.6228
C       2.7942  0.4098  -0.6169
C       2.7943  -0.4087  0.6220
H       -1.1411  0.9986  -1.8864
H       -2.8484  1.4412  -0.3431
H       -3.4393  0.1414  -1.3783
H       -3.4461  -0.1303  1.3767
H       -2.8490  -1.4405  0.3583
H       -1.2697  0.7920  1.8435
H       -1.1971  -0.8982  1.9919
H       1.4365  -0.6920  -2.0275
H       1.3231  1.0020  -1.9869
H       3.5566  0.1489  -1.3445
H       2.9261  1.4442  -0.3397
H       2.9269  -1.4431  0.3549
H       3.5565  -0.1373  1.3497
H       1.3788  -0.9011  2.0926
H       1.3955  0.7880  1.8966
H       -1.3036  -0.6965  -1.9745
