27

Co      -0.0376  -0.0640  -0.0633
Cl      0.0002  -2.2420  -0.2078
Cl      -0.0001  2.3369  0.2241
N       -1.4524  0.1478  -1.3014
N       -1.4327  -0.1266  1.2410
N       1.3960  0.1682  -1.3411
N       1.6119  -0.1466  1.5018
C       -2.7664  0.4043  -0.6175
C       -2.7666  -0.4122  0.6483
C       2.6928  0.3753  -0.6019
C       2.8402  -0.4270  0.6917
H       -1.2549  0.9336  -1.9030
H       -2.8061  1.4559  -0.3855
H       -3.5782  0.1686  -1.2852
H       -3.5561  -0.1170  1.3186
H       -2.8497  -1.4699  0.4534
H       -1.4380  0.7845  1.6729
H       -1.2188  -0.8074  1.9459
H       1.4692  -0.6151  -1.9844
H       1.2307  1.0106  -1.8783
H       3.5140  0.1762  -1.2759
H       2.7121  1.4270  -0.3550
H       2.9031  -1.4848  0.5261
H       3.7569  -0.0946  1.1916
H       1.4889  -0.8250  2.2307
H       1.6738  0.7731  1.9198
H       -1.5278  -0.6680  -1.8701
