27

Co      0.0000  0.0732  0.0050
Cl      0.0002  -2.3343  -0.2097
Cl      -0.0001  2.2334  0.1997
N       -1.4180  0.1916  -1.3291
N       -1.4180  -0.2068  1.3341
N       1.4180  0.1859  -1.3291
N       1.4180  -0.2007  1.3341
C       -2.7788  0.3590  -0.6975
C       -2.7790  -0.3583  0.6925
C       2.7788  0.3590  -0.6976
C       2.7790  -0.3579  0.6927
H       -1.3848  0.9233  -2.0362
H       -2.8236  1.4397  -0.6210
H       -3.7089  -0.0045  -1.1627
H       -3.7021  -0.0046  1.1645
H       -2.8242  -1.4390  0.6058
H       -1.6901  0.5224  2.0421
H       -1.3296  -1.0248  1.9297
H       1.6624  -0.6190  -1.9045
H       1.3850  0.9174  -2.0421
H       3.7088  0.0008  -1.1628
H       2.8180  1.4454  -0.6160
H       2.8189  -1.4443  0.6008
H       3.7088  -0.0093  1.1579
H       1.3296  -1.0184  1.9357
H       1.7023  0.5232  2.0361
H       -1.6568  -0.6188  -1.9105
