27

Co      -0.0736  -0.0732  -0.0050
Cl      0.0101  -2.2446  -0.2221
Cl      0.0097  2.3456  0.2323
N       -1.5786  0.1107  -1.3800
N       -1.5786  -0.0957  1.3748
N       1.6179  0.1113  -1.2966
N       1.6178  -0.0959  1.2915
C       -2.6379  0.4675  -0.5724
C       -2.6382  -0.4668  0.5774
C       2.7214  0.4773  -0.5578
C       2.7215  -0.4762  0.5629
H       -0.9186  0.8570  -1.8830
H       -2.8978  1.5077  -0.3254
H       -3.5094  0.0248  -1.0710
H       -3.5161  -0.0136  1.0694
H       -2.8984  -1.5028  0.3405
H       -1.4631  0.8851  1.6971
H       -0.9746  -0.7565  1.9886
H       1.5355  -0.8192  -1.7058
H       0.9776  0.8182  -1.8482
H       3.5584  0.0335  -1.1055
H       3.0016  1.5077  -0.3071
H       3.0024  -1.5066  0.3223
H       3.5583  -0.0219  1.1107
H       1.0333  -0.7172  1.9539
H       1.4946  0.9152  1.5749
H       -1.4970  -0.7895  -1.8281
