27

Co      0.0000  0.0000  0.0000
Cl      0.0002  -2.2787  -0.2159
Cl      -0.0001  2.2787  0.2160
N       -1.4214  0.1932  -1.2735
N       -1.4214  -0.1933  1.2734
N       1.4214  0.1931  -1.2735
N       1.4213  -0.1928  1.2735
C       -2.7863  0.3702  -0.6327
C       -2.7866  -0.3695  0.6327
C       2.7864  0.3701  -0.6329
C       2.7866  -0.3690  0.6330
H       -1.4643  0.7982  -2.1407
H       -2.7598  1.4249  -0.3841
H       -3.6267  0.1832  -1.2879
H       -3.6267  -0.1821  1.2880
H       -2.7604  -1.4242  0.3841
H       -1.2665  0.8296  1.5377
H       -1.4647  -0.7988  2.1402
H       1.2667  -0.8302  -1.5370
H       1.4645  0.7979  -2.1343
H       3.6267  0.1895  -1.2880
H       2.7599  1.4249  -0.3847
H       2.7607  -1.4238  0.3847
H       3.6266  -0.1879  1.2882
H       1.4580  -0.7980  2.1340
H       1.2662  0.8303  1.5374
H       -1.2667  -0.8300  -1.5374
