27

Co      0.0000  0.0000  0.0000
Cl      0.0002  -2.2787  -0.2159
Cl      -0.0001  2.2787  0.2160
N       -1.3820  0.1402  -1.2050
N       -1.4999  -0.1403  1.3154
N       1.4999  0.1401  -1.3154
N       1.3820  -0.1398  1.2050
C       -2.7367  0.3977  -0.6179
C       -2.8106  -0.4191  0.6473
C       2.8104  0.4198  -0.6474
C       2.7369  -0.3966  0.6181
H       -1.1814  0.8801  -1.8513
H       -2.8056  1.4524  -0.3967
H       -3.5028  0.1401  -1.3366
H       -3.6353  -0.1243  1.2779
H       -2.8799  -1.4738  0.4483
H       -1.5613  0.7416  1.7893
H       -1.3291  -0.8512  2.0054
H       1.5615  -0.7422  -1.7886
H       1.3288  0.8504  -2.0061
H       3.6353  0.1250  -1.2778
H       2.8794  1.4745  -0.4489
H       2.8066  -1.4513  0.3974
H       3.5027  -0.1382  1.3369
H       1.1817  -0.8799  1.8511
H       1.4137  0.7202  1.7227
H       -1.4143  -0.7198  -1.7227
