27

Co      -0.0736  0.0000  0.0000
Cl      0.0101  -2.2363  -0.2191
Cl      0.0097  2.2363  0.2192
N       -1.5840  0.1217  -1.3491
N       -1.5840  -0.1218  1.3490
N       1.6232  0.1224  -1.2657
N       1.6232  -0.1221  1.2657
C       -2.7176  0.4089  -0.5956
C       -2.7178  -0.4082  0.5955
C       2.8010  0.4186  -0.5810
C       2.8012  -0.4175  0.5810
H       -1.2055  0.8198  -2.0020
H       -2.7179  1.4694  -0.3655
H       -3.7774  0.1287  -0.9173
H       -3.7773  -0.1276  0.9174
H       -2.7185  -1.4645  0.3655
H       -1.5510  0.7943  1.7654
H       -1.2059  -0.8203  2.0015
H       1.5898  -0.8243  -1.6428
H       1.2645  0.7810  -1.9672
H       3.8264  0.1374  -0.9518
H       2.8217  1.4694  -0.3472
H       2.8225  -1.4683  0.3472
H       3.8263  -0.1359  0.9519
H       1.2647  -0.7810  1.9669
H       1.5893  0.8244  1.6432
H       -1.5513  -0.7946  -1.7651
