27

Co      0.0000  0.0000  0.0000
Cl      0.0002  -2.3482  -0.2239
Cl      -0.0001  2.3483  0.2240
N       -1.4082  0.1950  -1.3677
N       -1.4082  -0.1951  1.3676
N       1.4082  0.1949  -1.3676
N       1.4082  -0.1946  1.3676
C       -2.7257  0.3666  -0.6399
C       -2.7260  -0.3659  0.6399
C       2.7258  0.3666  -0.6400
C       2.7260  -0.3655  0.6401
H       -1.4593  0.8189  -2.2097
H       -2.6705  1.4213  -0.3886
H       -3.6109  0.1984  -1.2431
H       -3.6109  -0.1973  1.2432
H       -2.6712  -1.4206  0.3886
H       -1.2605  0.8161  1.6507
H       -1.4597  -0.8195  2.2093
H       1.2608  -0.8167  -1.6500
H       1.4595  0.8186  -2.2033
H       3.6109  0.2046  -1.2432
H       2.6706  1.4213  -0.3892
H       2.6715  -1.4202  0.3892
H       3.6108  -0.2031  1.2433
H       1.4530  -0.8187  2.2030
H       1.2603  0.8168  1.6504
H       -1.2608  -0.8165  -1.6504
