27

Co      0.0376  0.0732  0.0050
Cl      0.0002  -2.3265  -0.2152
Cl      -0.0001  2.2256  0.2052
N       -1.3734  0.2212  -1.4638
N       -1.3734  -0.2365  1.4688
N       1.3120  0.1950  -1.3135
N       1.3119  -0.2099  1.3186
C       -2.6607  0.3710  -0.6693
C       -2.6609  -0.3703  0.6642
C       2.6608  0.3778  -0.6558
C       2.6609  -0.3767  0.6508
H       -1.5788  0.8710  -2.3041
H       -2.8632  1.4240  -0.5235
H       -3.3488  -0.0095  -1.4465
H       -3.3488  0.0005  1.4416
H       -2.8639  -1.4233  0.5084
H       -1.5266  0.6212  1.9914
H       -1.5237  -0.9726  2.1976
H       1.4033  -0.7519  -1.6729
H       1.4561  0.8173  -2.1735
H       3.2805  0.0092  -1.5149
H       2.8782  1.4365  -0.4980
H       2.8790  -1.4354  0.4829
H       3.2804  -0.0177  1.5100
H       1.3940  -0.9184  2.0672
H       1.4432  0.6561  1.8045
H       -1.4865  -0.7175  -1.8598
