27

Co      0.0376  0.0732  0.0050
Cl      0.0002  -2.3214  -0.2264
Cl      -0.0001  2.2204  0.2164
N       -1.3904  0.1298  -1.3588
N       -1.3904  -0.1451  1.3638
N       1.3290  0.1093  -1.2085
N       1.3289  -0.1241  1.2136
C       -2.6689  0.4079  -0.6419
C       -2.6691  -0.4072  0.6369
C       2.6690  0.4147  -0.6284
C       2.6691  -0.4136  0.6234
H       -1.2603  0.8206  -2.0750
H       -2.6989  1.4626  -0.4299
H       -3.5167  0.1528  -1.2548
H       -3.5166  -0.1618  1.2499
H       -2.6996  -1.4619  0.4148
H       -1.4786  0.6837  1.9322
H       -1.2052  -0.9221  1.9685
H       1.3497  -0.8144  -1.6192
H       1.1376  0.7725  -1.9455
H       3.4483  0.1593  -1.3233
H       2.7195  1.4695  -0.4101
H       2.7204  -1.4684  0.3950
H       3.4483  -0.1678  1.3184
H       1.0822  -0.8735  1.8391
H       1.3896  0.7186  1.7509
H       -1.4385  -0.7800  -1.8006
