27

Co      -0.1111  0.0000  0.0000
Cl      0.0101  -2.3080  -0.2105
Cl      0.0097  2.3081  0.2106
N       -1.5636  0.1530  -1.3935
N       -1.5636  -0.1531  1.3934
N       1.6643  0.1685  -1.4603
N       1.6643  -0.1682  1.4603
C       -2.8154  0.4043  -0.6203
C       -2.8156  -0.4036  0.6203
C       2.8988  0.4073  -0.6194
C       2.8990  -0.4062  0.6195
H       -1.2528  0.9664  -1.9109
H       -2.9816  1.4387  -0.3610
H       -3.5258  0.1079  -1.4015
H       -3.5326  -0.1068  1.3949
H       -2.9823  -1.4379  0.3611
H       -1.3635  0.7258  1.8910
H       -1.2532  -0.9669  1.9104
H       1.4898  -0.7217  -1.9437
H       1.4348  0.9698  -2.0114
H       3.6431  0.1154  -1.3677
H       3.0593  1.4417  -0.3576
H       3.0602  -1.4406  0.3577
H       3.6431  -0.1138  1.3679
H       1.4349  -0.9698  2.0111
H       1.4893  0.7218  1.9441
H       -1.3570  -0.7262  -1.8907
