27

Co      0.1111  0.0640  0.0633
Cl      -0.0096  -2.2703  -0.2215
Cl      -0.0099  2.1755  0.2053
N       -1.4357  0.1326  -1.3930
N       -1.4553  -0.1540  1.4531
N       1.4528  0.1170  -1.4365
N       1.2368  -0.1380  1.2759
C       -2.8117  0.4515  -0.6927
C       -2.8120  -0.4422  0.6618
C       2.8021  0.4706  -0.7233
C       2.6550  -0.4167  0.6337
H       -1.2504  0.8054  -2.1073
H       -2.8000  1.5051  -0.4666
H       -3.6316  0.2447  -1.3660
H       -3.6537  -0.2942  1.3329
H       -2.7577  -1.4939  0.3987
H       -1.5679  0.6711  2.0165
H       -1.2873  -0.9327  2.0634
H       1.4930  -0.8123  -1.8311
H       1.2161  0.7720  -2.1618
H       3.6468  0.2217  -1.3412
H       2.7962  1.5284  -0.5228
H       2.6068  -1.4684  0.3518
H       3.4038  -0.3002  1.4259
H       0.9582  -0.9578  1.8088
H       1.2875  0.6545  1.8965
H       -1.4787  -0.7883  -1.8186
