27

Co      -0.1111  -0.0640  -0.0633
Cl      0.0101  -2.2476  -0.2190
Cl      0.0097  2.3426  0.2354
N       -1.5031  0.1095  -1.3121
N       -1.4834  -0.0883  1.2518
N       1.4860  0.1306  -1.2685
N       1.7019  -0.1091  1.4291
C       -2.6642  0.4007  -0.5588
C       -2.6644  -0.4086  0.5896
C       2.6740  0.3816  -0.5284
C       2.8214  -0.4332  0.6182
H       -1.3324  0.8658  -1.9598
H       -2.6644  1.4510  -0.2895
H       -3.5607  0.2018  -1.1259
H       -3.5385  -0.1501  1.1593
H       -2.7079  -1.4607  0.3574
H       -1.5256  0.8414  1.6453
H       -1.2963  -0.7396  2.0028
H       1.5954  -0.7015  -1.8349
H       1.3671  0.9042  -1.9001
H       3.5455  0.2184  -1.1510
H       2.6741  1.4220  -0.2402
H       2.8651  -1.4798  0.4112
H       3.7884  -0.1368  1.0666
H       1.6253  -0.7186  2.2525
H       1.7999  0.8595  1.7703
H       -1.6154  -0.7249  -1.8425
