27

Co      0.0000  0.0000  0.0000
Cl      0.0002  -2.3375  -0.2239
Cl      -0.0001  2.3375  0.2240
N       -1.3533  0.1306  -1.2936
N       -1.3533  -0.1308  1.2935
N       1.3533  0.1306  -1.2936
N       1.3533  -0.1303  1.2936
C       -2.7750  0.4468  -0.6706
C       -2.7753  -0.4461  0.6706
C       2.7751  0.4467  -0.6707
C       2.7752  -0.4456  0.6708
H       -1.1224  0.8405  -1.9619
H       -2.7699  1.4973  -0.4325
H       -3.5421  0.2464  -1.4159
H       -3.5420  -0.2453  1.4160
H       -2.7705  -1.5008  0.4325
H       -1.4000  0.7512  1.7742
H       -1.1229  -0.8411  1.9615
H       1.4002  -0.7518  -1.7735
H       1.1226  0.8402  -1.9622
H       3.5420  0.2460  -1.4160
H       2.7700  1.5015  -0.4331
H       2.7708  -1.5004  0.4331
H       3.5420  -0.2444  1.4162
H       1.1228  -0.8403  1.9618
H       1.3997  0.7519  1.7739
H       -1.4002  -0.7516  -1.7739
