27

Co      0.0000  0.0000  0.0000
Cl      0.0002  -2.2894  -0.2159
Cl      -0.0001  2.2895  0.2160
N       -1.3969  0.1888  -1.3850
N       -1.3969  -0.1890  1.3849
N       1.3969  0.1888  -1.3850
N       1.3968  -0.1885  1.3850
C       -2.8341  0.3973  -0.6634
C       -2.8343  -0.3966  0.6634
C       2.8342  0.3973  -0.6635
C       2.8343  -0.3962  0.6636
H       -1.6411  0.8246  -2.2634
H       -2.7480  1.4405  -0.3748
H       -3.5347  0.3324  -1.5589
H       -3.5346  -0.3313  1.5590
H       -2.7487  -1.4440  0.3748
H       -1.3728  0.7844  1.7235
H       -1.6416  -0.8251  2.2630
H       1.3731  -0.7850  -1.7228
H       1.6413  0.8243  -2.2570
H       3.5346  0.3386  -1.5590
H       2.7481  1.4448  -0.3755
H       2.7490  -1.4437  0.3755
H       3.5346  -0.3370  1.5592
H       1.6348  -0.8244  2.2567
H       1.3726  0.7851  1.7232
H       -1.3731  -0.7848  -1.7232
