27

Co      -0.0376  -0.0640  -0.0633
Cl      0.0002  -2.1889  -0.2110
Cl      -0.0001  2.2838  0.2274
N       -1.5877  0.0594  -1.2492
N       -1.5681  -0.0383  1.1888
N       1.5314  0.0855  -1.2889
N       1.7473  -0.0639  1.4495
C       -2.7465  0.4442  -0.5513
C       -2.7467  -0.4521  0.5820
C       2.6729  0.4152  -0.5356
C       2.8203  -0.4669  0.6254
H       -1.2006  0.9189  -1.7249
H       -2.8602  1.4944  -0.3183
H       -3.5756  0.1507  -1.1677
H       -3.5535  -0.0990  1.2011
H       -2.9038  -1.5042  0.3862
H       -1.8142  0.7490  1.7946
H       -1.1646  -0.7927  1.7679
H       1.8399  -0.5796  -2.1118
H       1.1765  1.0015  -1.7013
H       3.5113  0.1460  -1.1584
H       2.7718  1.4557  -0.2935
H       2.9628  -1.5135  0.4645
H       3.7542  -0.0644  1.0740
H       1.4413  -0.8159  2.0537
H       2.0444  0.7376  2.0471
H       -1.9040  -0.6325  -1.9919
