27

Co      0.0000  0.0000  0.0000
Cl      0.0002  -2.2838  -0.2047
Cl      -0.0001  2.2839  0.2048
N       -1.3039  0.2014  -1.3018
N       -1.4217  -0.2015  1.4121
N       1.4217  0.1957  -1.4122
N       1.3039  -0.1954  1.3017
C       -2.8163  0.3342  -0.7118
C       -2.8902  -0.3556  0.7412
C       2.8900  0.3562  -0.7414
C       2.8165  -0.3330  0.7120
H       -1.3285  1.0040  -1.9442
H       -2.6292  1.4106  -0.5419
H       -3.7480  0.2238  -1.2777
H       -3.8737  -0.2079  1.2257
H       -2.7035  -1.4362  0.5935
H       -1.5134  0.6136  1.9963
H       -1.4762  -0.9751  2.0983
H       1.5260  -0.6142  -1.9900
H       1.4760  0.9686  -2.1047
H       3.8805  0.2143  -1.2190
H       2.6973  1.4426  -0.5885
H       2.6245  -1.4194  0.5370
H       3.7479  -0.2274  1.2780
H       1.3288  -0.9982  1.9497
H       1.3782  0.5922  1.9241
H       -1.3731  -0.5919  -1.9297
