27

Co      0.0736  -0.0092  0.0583
Cl      -0.0096  -2.2756  -0.2190
Cl      -0.0099  2.2818  0.2129
N       -1.4507  0.1347  -1.1910
N       -1.4704  -0.1409  1.2461
N       1.5293  0.1395  -1.3847
N       1.3133  -0.1454  1.2191
C       -2.8152  0.4180  -0.6381
C       -2.8155  -0.4087  0.6123
C       2.8056  0.4302  -0.6824
C       2.6585  -0.3763  0.5978
H       -1.2384  0.8305  -1.8825
H       -2.9130  1.4757  -0.4366
H       -3.5825  0.1199  -1.3384
H       -3.6046  -0.1593  1.3104
H       -2.8707  -1.4603  0.3839
H       -1.5343  0.7348  1.7256
H       -1.3309  -0.8568  1.9447
H       1.5885  -0.7459  -1.8524
H       1.3270  0.8449  -2.0668
H       3.6660  0.0901  -1.2453
H       2.8886  1.4880  -0.5133
H       2.6993  -1.4280  0.3575
H       3.4229  -0.1584  1.3351
H       1.1247  -0.9296  1.8199
H       1.3426  0.6840  1.7865
H       -1.4854  -0.7560  -1.6590
