27

Co      0.0000  0.0000  0.0000
Cl      0.0002  -2.3002  -0.2159
Cl      -0.0001  2.3003  0.2160
N       -1.5055  0.1546  -1.4325
N       -1.5055  -0.1547  1.4324
N       1.5056  0.1545  -1.4325
N       1.5055  -0.1542  1.4325
C       -2.7592  0.4016  -0.6469
C       -2.7594  -0.4009  0.6469
C       2.7593  0.4015  -0.6471
C       2.7594  -0.4004  0.6471
H       -1.3411  0.9228  -2.0506
H       -2.7922  1.4563  -0.4368
H       -3.6336  0.1471  -1.2282
H       -3.6336  -0.1460  1.2284
H       -2.7929  -1.4556  0.4369
H       -1.5666  0.6875  1.9715
H       -1.3416  -0.9234  2.0501
H       1.5668  -0.6881  -1.9708
H       1.3413  0.9225  -2.0508
H       3.6336  0.1467  -1.2284
H       2.7923  1.4563  -0.4375
H       2.7932  -1.4552  0.4375
H       3.6335  -0.1452  1.2285
H       1.3415  -0.9226  2.0505
H       1.5663  0.6882  1.9712
H       -1.5669  -0.6878  -1.9712
