27

Co      0.0736  0.0000  0.0000
Cl      -0.0096  -2.2172  -0.2021
Cl      -0.0099  2.2173  0.2022
N       -1.4522  0.2480  -1.3244
N       -1.4522  -0.2482  1.3243
N       1.4130  0.2472  -1.4077
N       1.4130  -0.2470  1.4077
C       -2.7409  0.3347  -0.7293
C       -2.7412  -0.3340  0.7293
C       2.6576  0.3249  -0.7442
C       2.6578  -0.3238  0.7442
H       -1.4828  0.9100  -2.1143
H       -2.7128  1.4036  -0.5355
H       -3.5827  0.1622  -1.3813
H       -3.5827  -0.1611  1.3814
H       -2.7134  -1.4029  0.5355
H       -1.2195  0.7402  1.6474
H       -1.4832  -0.9106  2.1138
H       1.1813  -0.7114  -1.7685
H       1.4241  0.9482  -2.1429
H       3.5336  0.1594  -1.3514
H       2.6049  1.3995  -0.5550
H       2.6057  -1.3984  0.5551
H       3.5336  -0.1578  1.3515
H       1.4176  -0.9483  2.1426
H       1.1808  0.7115  1.7689
H       -1.2198  -0.7405  -1.6471
