27

Co      0.0000  0.0092  -0.0583
Cl      0.0002  -2.3591  -0.2154
Cl      -0.0001  2.3530  0.2216
N       -1.4600  0.1581  -1.3009
N       -1.5582  -0.1521  1.3560
N       1.4600  0.1581  -1.3008
N       1.5581  -0.1516  1.3560
C       -2.7808  0.3873  -0.6122
C       -2.8546  -0.4172  0.6674
C       2.7808  0.3872  -0.6123
C       2.8546  -0.4168  0.6676
H       -1.3063  0.9320  -1.9231
H       -2.8282  1.4389  -0.3852
H       -3.5845  0.1471  -1.2984
H       -3.6949  -0.0908  1.2679
H       -2.9454  -1.4750  0.4895
H       -1.6044  0.7202  1.8510
H       -1.3620  -0.8773  2.0146
H       1.5065  -0.6810  -1.8503
H       1.3065  0.9317  -1.9233
H       3.5845  0.1467  -1.2985
H       2.8283  1.4389  -0.3858
H       2.9457  -1.4746  0.4902
H       3.6949  -0.0899  1.2680
H       1.3619  -0.8765  2.0150
H       1.6041  0.7209  1.8507
H       -1.5065  -0.6776  -1.8507
