27

Co      0.0000  -0.0732  -0.0050
Cl      0.0002  -2.2467  -0.2054
Cl      -0.0001  2.3478  0.2156
N       -1.5962  0.1685  -1.3433
N       -1.5962  -0.1534  1.3382
N       1.5962  0.1684  -1.3433
N       1.5962  -0.1530  1.3382
C       -2.8642  0.4167  -0.6247
C       -2.8645  -0.4160  0.6297
C       2.8643  0.4166  -0.6248
C       2.8645  -0.4155  0.6299
H       -1.0546  0.9755  -1.8106
H       -3.0237  1.4583  -0.3734
H       -3.6977  0.0733  -1.2251
H       -3.7044  -0.0621  1.2235
H       -3.0244  -1.4576  0.3885
H       -1.2611  0.8293  1.6807
H       -1.1106  -0.8750  1.9162
H       1.2950  -0.7340  -1.8112
H       1.0548  0.9752  -1.8109
H       3.6976  0.0730  -1.2252
H       3.0238  1.4583  -0.3740
H       3.0247  -1.4572  0.3892
H       3.6976  -0.0613  1.2304
H       1.1105  -0.8742  1.9166
H       1.2541  0.8300  1.6803
H       -1.2950  -0.7337  -1.8116
