27

Co      -0.0736  0.0092  -0.0583
Cl      0.0101  -2.2925  -0.2128
Cl      0.0097  2.2864  0.2191
N       -1.5051  0.1534  -1.4361
N       -1.4855  -0.1474  1.3807
N       1.4266  0.1484  -1.2422
N       1.6425  -0.1420  1.4078
C       -2.7179  0.4100  -0.6217
C       -2.7181  -0.4179  0.6474
C       2.7277  0.3977  -0.5776
C       2.8751  -0.4494  0.6624
H       -1.0151  0.9417  -1.9382
H       -2.8200  1.4486  -0.3565
H       -3.5977  0.1097  -1.1756
H       -3.5823  -0.0681  1.1972
H       -2.8635  -1.4626  0.4092
H       -1.1611  0.7953  1.7951
H       -0.9234  -0.9164  1.8751
H       1.1006  -0.7855  -1.6669
H       0.9268  0.9267  -1.7544
H       3.5142  0.1387  -1.2690
H       2.8445  1.4363  -0.2810
H       3.0356  -1.4941  0.4369
H       3.7571  -0.0672  1.1796
H       1.1295  -0.8421  2.0007
H       1.3455  0.8476  1.7335
H       -1.2037  -0.7748  -1.8610
