27

Co      0.1111  0.0000  0.0000
Cl      -0.0096  -2.2121  -0.2133
Cl      -0.0099  2.2122  0.2134
N       -1.3715  0.1356  -1.3166
N       -1.3715  -0.1357  1.3165
N       1.2709  0.1199  -1.2497
N       1.2708  -0.1197  1.2497
C       -2.8257  0.4368  -0.6827
C       -2.8259  -0.4361  0.6826
C       2.7424  0.4338  -0.6838
C       2.7426  -0.4327  0.6839
H       -1.5252  0.8275  -2.1220
H       -2.7305  1.5003  -0.4845
H       -3.6006  0.3060  -1.4496
H       -3.5937  -0.3049  1.4566
H       -2.7312  -1.5038  0.4845
H       -1.8031  0.6604  1.9095
H       -1.5256  -0.8281  2.1215
H       1.6772  -0.6658  -1.8553
H       1.3436  0.8236  -2.0219
H       3.4832  0.2977  -1.4837
H       2.6531  1.5016  -0.4892
H       2.6539  -1.5005  0.4892
H       3.4831  -0.2961  1.4839
H       1.3438  -0.8236  2.0216
H       1.6767  0.6659  1.8557
H       -1.8101  -0.6608  -1.9092
