27

Co      0.0000  -0.0732  -0.0050
Cl      0.0002  -2.2631  -0.2166
Cl      -0.0001  2.3642  0.2268
N       -1.6572  0.1344  -1.3781
N       -1.6572  -0.1194  1.3730
N       1.6572  0.1400  -1.3781
N       1.6571  -0.1245  1.3730
C       -2.8033  0.4003  -0.5783
C       -2.8035  -0.3996  0.5833
C       2.8034  0.4003  -0.5784
C       2.8035  -0.3992  0.5836
H       -1.5043  0.9017  -2.0112
H       -2.8328  1.4537  -0.3314
H       -3.7271  0.1642  -1.1042
H       -3.7271  -0.1530  1.1094
H       -2.8334  -1.4487  0.3466
H       -1.7297  0.7888  1.7963
H       -1.5603  -0.8013  2.1167
H       1.7647  -0.6935  -1.9325
H       1.5045  0.9070  -2.0058
H       3.7271  0.1582  -1.1044
H       2.8385  1.4438  -0.3376
H       2.8393  -1.4427  0.3528
H       3.7270  -0.1465  1.1096
H       1.5602  -0.8061  2.1115
H       1.7238  0.7895  1.8016
H       -1.7703  -0.6932  -1.9273
