27

Co      0.0000  0.0000  0.0000
Cl      0.0002  -2.3029  -0.2217
Cl      -0.0001  2.3029  0.2218
N       -1.5798  0.0893  -1.3523
N       -1.5798  -0.0894  1.3522
N       1.5798  0.0949  -1.3523
N       1.5798  -0.0946  1.3523
C       -2.8735  0.5006  -0.5224
C       -2.8737  -0.4999  0.5224
C       2.8736  0.5005  -0.5225
C       2.8737  -0.4994  0.5226
H       -1.1892  0.7917  -1.9803
H       -3.1964  1.5207  -0.2460
H       -3.5303  0.0505  -1.3189
H       -3.5371  -0.0494  1.3123
H       -3.1971  -1.5200  0.2460
H       -1.6587  0.8184  1.7848
H       -1.1896  -0.7923  1.9798
H       1.6466  -0.8190  -1.7897
H       1.1894  0.7971  -1.9749
H       3.5303  0.0445  -1.3147
H       3.2065  1.5151  -0.2522
H       3.2073  -1.5140  0.2523
H       3.5303  -0.0429  1.3149
H       1.1895  -0.7971  1.9745
H       1.6461  0.8191  1.7901
H       -1.6522  -0.8188  -1.7844
