27

Co      0.0376  -0.0092  0.0583
Cl      0.0002  -2.2090  -0.2164
Cl      -0.0001  2.2152  0.2104
N       -1.3843  0.1392  -1.3053
N       -1.4040  -0.1455  1.3605
N       1.4407  0.1186  -1.2655
N       1.2247  -0.1245  1.0998
C       -2.7291  0.3981  -0.6649
C       -2.7294  -0.3889  0.6391
C       2.8028  0.4270  -0.6808
C       2.6557  -0.3732  0.5962
H       -1.5342  0.8536  -2.0800
H       -2.7114  1.4690  -0.5105
H       -3.5439  0.1728  -1.3325
H       -3.5592  -0.2121  1.3112
H       -2.6691  -1.4535  0.4578
H       -1.8478  0.6226  1.9937
H       -1.6267  -0.8799  2.1422
H       1.8642  -0.6973  -1.8120
H       1.5588  0.7761  -2.1052
H       3.6081  0.1645  -1.3420
H       2.8056  1.4979  -0.5422
H       2.6163  -1.4379  0.3864
H       3.3651  -0.2328  1.4318
H       1.3564  -0.8608  1.8582
H       1.6183  0.6354  1.7461
H       -1.8057  -0.6438  -1.9271
