27

Co      0.0000  0.0732  0.0050
Cl      0.0002  -2.2734  -0.2184
Cl      -0.0001  2.1724  0.2084
N       -1.3952  0.1279  -1.3871
N       -1.3952  -0.1432  1.3921
N       1.3952  0.1278  -1.3871
N       1.3951  -0.1427  1.3921
C       -2.7701  0.4457  -0.6803
C       -2.7703  -0.4450  0.6752
C       2.7701  0.4457  -0.6804
C       2.7703  -0.4446  0.6755
H       -1.2055  0.8165  -2.0884
H       -2.7398  1.4962  -0.4422
H       -3.5840  0.2610  -1.3689
H       -3.5840  -0.2700  1.3640
H       -2.7404  -1.4997  0.4271
H       -1.4769  0.6839  1.9550
H       -1.1504  -0.9180  1.9819
H       1.4367  -0.7805  -1.8230
H       1.2057  0.8162  -2.0887
H       3.5840  0.2606  -1.3690
H       2.7399  1.5005  -0.4429
H       2.7407  -1.4994  0.4277
H       3.5839  -0.2691  1.3641
H       1.1503  -0.9173  1.9823
H       1.4766  0.6846  1.9546
H       -1.4368  -0.7802  -1.8233
