27

Co      0.0000  0.0000  0.0000
Cl      0.0002  -2.2653  -0.2101
Cl      -0.0001  2.2653  0.2102
N       -1.3044  0.1789  -1.2715
N       -1.3044  -0.1790  1.2714
N       1.3045  0.1732  -1.2714
N       1.3044  -0.1729  1.2714
C       -2.6813  0.3652  -0.6878
C       -2.6815  -0.3645  0.6878
C       2.6814  0.3652  -0.6879
C       2.6815  -0.3641  0.6880
H       -1.2300  0.9268  -1.9507
H       -2.7154  1.4459  -0.5958
H       -3.5901  0.0219  -1.1789
H       -3.5833  -0.0208  1.1858
H       -2.7161  -1.4451  0.5959
H       -1.5569  0.6102  1.8869
H       -1.2304  -0.9274  1.9502
H       1.5695  -0.6108  -1.8806
H       1.2302  0.9209  -1.9565
H       3.5900  0.0272  -1.1790
H       2.7099  1.4515  -0.5909
H       2.7107  -1.4504  0.5909
H       3.5900  -0.0256  1.1792
H       1.2303  -0.9210  1.9562
H       1.5690  0.6109  1.8810
H       -1.5639  -0.6106  -1.8866
