27

Co      0.0000  0.0000  0.0000
Cl      0.0002  -2.2065  -0.2021
Cl      -0.0001  2.2065  0.2022
N       -1.3076  0.1800  -1.2888
N       -1.3076  -0.1802  1.2887
N       1.3077  0.1744  -1.2887
N       1.3076  -0.1741  1.2888
C       -2.7896  0.4032  -0.7258
C       -2.7899  -0.4025  0.7258
C       2.7897  0.4032  -0.7260
C       2.7899  -0.4021  0.7260
H       -1.1936  0.9179  -1.9680
H       -2.7711  1.4797  -0.6112
H       -3.6593  0.1195  -1.2983
H       -3.6525  -0.1184  1.3052
H       -2.7717  -1.4832  0.6112
H       -1.5600  0.6149  1.8943
H       -1.1940  -0.9185  1.9675
H       1.5727  -0.6155  -1.8879
H       1.1938  0.9120  -1.9739
H       3.6593  0.1247  -1.2984
H       2.7656  1.4895  -0.6062
H       2.7664  -1.4884  0.6062
H       3.6592  -0.1232  1.2986
H       1.1939  -0.9121  1.9735
H       1.5722  0.6156  1.8883
H       -1.5671  -0.6152  -1.8939
