27

Co      -0.0376  -0.0732  -0.0050
Cl      0.0002  -2.3055  -0.2134
Cl      -0.0001  2.4066  0.2236
N       -1.4784  0.1524  -1.2559
N       -1.4784  -0.1374  1.2507
N       1.5399  0.1728  -1.4060
N       1.5398  -0.1574  1.4010
C       -2.8176  0.4060  -0.6304
C       -2.8178  -0.4053  0.6354
C       2.8177  0.3992  -0.6442
C       2.8178  -0.3981  0.6493
H       -1.2447  0.9310  -1.8512
H       -2.8967  1.4607  -0.4195
H       -3.6056  0.1279  -1.3147
H       -3.6056  -0.1167  1.3199
H       -2.8974  -1.4600  0.4347
H       -1.4907  0.7638  1.6932
H       -1.3007  -0.8305  1.9568
H       1.6201  -0.6343  -2.0047
H       1.3678  0.9785  -1.9812
H       3.6738  0.1207  -1.2465
H       2.8763  1.4539  -0.4406
H       2.8772  -1.4528  0.4558
H       3.6738  -0.1090  1.2517
H       1.4235  -0.8775  2.0869
H       1.5792  0.7304  1.8738
H       -1.5314  -0.6682  -1.8242
