27

Co      0.0000  0.0000  0.0000
Cl      0.0002  -2.3136  -0.2217
Cl      -0.0001  2.3137  0.2218
N       -1.6701  0.1204  -1.3756
N       -1.6701  -0.1205  1.3755
N       1.6702  0.1259  -1.3755
N       1.6701  -0.1256  1.3756
C       -2.7839  0.4522  -0.5873
C       -2.7841  -0.4515  0.5873
C       2.7839  0.4522  -0.5874
C       2.7841  -0.4511  0.5875
H       -1.4024  0.8188  -2.0512
H       -2.9818  1.5055  -0.3973
H       -3.6428  0.0490  -1.1327
H       -3.6428  -0.0479  1.1328
H       -2.9825  -1.5006  0.3973
H       -1.9378  0.7214  1.8879
H       -1.4029  -0.8193  2.0507
H       1.9325  -0.7220  -1.8928
H       1.4026  0.8241  -2.0458
H       3.6428  0.0430  -1.1328
H       2.9876  1.4957  -0.4036
H       2.9884  -1.4946  0.4036
H       3.6428  -0.0414  1.1330
H       1.4028  -0.8242  2.0455
H       1.9319  0.7221  1.8932
H       -1.9381  -0.7217  -1.8876
