27

Co      0.0000  0.0000  0.0000
Cl      0.0002  -2.3375  -0.2239
Cl      -0.0001  2.3375  0.2240
N       -1.3955  0.1349  -1.2683
N       -1.3955  -0.1350  1.2682
N       1.3956  0.1348  -1.2682
N       1.3955  -0.1345  1.2682
C       -2.7201  0.4088  -0.6326
C       -2.7203  -0.4081  0.6326
C       2.7202  0.4087  -0.6327
C       2.7203  -0.4076  0.6328
H       -1.2069  0.8574  -1.9366
H       -2.7783  1.4635  -0.4198
H       -3.5209  0.1408  -1.3018
H       -3.5209  -0.1397  1.3020
H       -2.7790  -1.4627  0.4198
H       -1.4422  0.7385  1.7615
H       -1.2074  -0.8580  1.9361
H       1.4425  -0.7392  -1.7608
H       1.2071  0.8571  -1.9368
H       3.5209  0.1404  -1.3020
H       2.7784  1.4635  -0.4204
H       2.7793  -1.4624  0.4205
H       3.5208  -0.1388  1.3021
H       1.2073  -0.8572  1.9365
H       1.4420  0.7392  1.7612
H       -1.4425  -0.7389  -1.7612
