27

Co      -0.0736  0.0092  -0.0583
Cl      0.0101  -2.3699  -0.2154
Cl      0.0097  2.3638  0.2216
N       -1.5587  0.1610  -1.5043
N       -1.5391  -0.1550  1.4489
N       1.4802  0.1560  -1.3104
N       1.6961  -0.1496  1.4760
C       -2.7619  0.3966  -0.6143
C       -2.7622  -0.4045  0.6400
C       2.7718  0.3843  -0.5702
C       2.9192  -0.4360  0.6550
H       -1.3122  0.9952  -2.0151
H       -2.8858  1.4279  -0.3422
H       -3.5229  0.1327  -1.3479
H       -3.5075  -0.0912  1.3695
H       -2.9294  -1.4419  0.3950
H       -1.3379  0.7272  1.9554
H       -1.2206  -0.9699  1.9520
H       1.2773  -0.7174  -1.8272
H       1.2240  0.9802  -1.8312
H       3.4394  0.1618  -1.4413
H       2.9104  1.4156  -0.2668
H       3.1014  -1.4734  0.4227
H       3.6823  -0.0903  1.3519
H       1.4266  -0.8956  2.0776
H       1.5222  0.7794  1.8938
H       -1.3805  -0.7067  -2.0214
