27

Co      0.0000  0.0000  0.0000
Cl      0.0002  -2.2894  -0.2159
Cl      -0.0001  2.2895  0.2160
N       -1.5556  0.1383  -1.3414
N       -1.5556  -0.1385  1.3413
N       1.5556  0.1383  -1.3413
N       1.5556  -0.1380  1.3413
C       -2.6852  0.4258  -0.5811
C       -2.6855  -0.4251  0.5811
C       2.6853  0.4257  -0.5812
C       2.6854  -0.4246  0.5813
H       -1.1715  0.9057  -1.8902
H       -3.0698  1.4644  -0.3871
H       -3.3603  -0.0826  -1.3152
H       -3.3670  0.0837  1.3086
H       -3.0705  -1.4594  0.3872
H       -1.5471  0.7311  1.8432
H       -1.1720  -0.9063  1.8898
H       1.5405  -0.7317  -1.8425
H       1.1717  0.9054  -1.8905
H       3.3603  -0.0830  -1.3153
H       3.0699  1.4602  -0.3878
H       3.0708  -1.4591  0.3878
H       3.3602  0.0846  1.3155
H       1.1719  -0.9055  1.8901
H       1.5400  0.7318  1.8428
H       -1.5405  -0.7315  -1.8429
