27

Co      0.0000  0.0000  0.0000
Cl      0.0002  -2.2121  -0.2133
Cl      -0.0001  2.2122  0.2134
N       -1.3650  0.1458  -1.2578
N       -1.3650  -0.1459  1.2577
N       1.3650  0.1457  -1.2578
N       1.3650  -0.1454  1.2578
C       -2.7486  0.3527  -0.6532
C       -2.7488  -0.3520  0.6532
C       2.7486  0.3526  -0.6534
C       2.7488  -0.3515  0.6534
H       -1.4302  0.8605  -2.0231
H       -2.5293  1.4277  -0.4446
H       -3.7505  0.2702  -1.1302
H       -3.7437  -0.2691  1.1372
H       -2.5299  -1.4270  0.4447
H       -1.4818  0.7059  1.7770
H       -1.4306  -0.8610  2.0226
H       1.4888  -0.7066  -1.7763
H       1.4304  0.8602  -2.0233
H       3.7505  0.2698  -1.1304
H       2.5294  1.4278  -0.4453
H       2.5302  -1.4267  0.4453
H       3.7504  -0.2683  1.1305
H       1.4305  -0.8602  2.0230
H       1.4883  0.7067  1.7766
H       -1.4888  -0.7063  -1.7767
