27

Co      -0.1111  0.0000  0.0000
Cl      0.0101  -2.3560  -0.2185
Cl      0.0097  2.3561  0.2186
N       -1.5004  0.1478  -1.3154
N       -1.5004  -0.1479  1.3153
N       1.6011  0.1633  -1.3822
N       1.6011  -0.1630  1.3822
C       -2.7691  0.4152  -0.6277
C       -2.7693  -0.4145  0.6277
C       2.8526  0.4181  -0.6268
C       2.8527  -0.4170  0.6269
H       -0.9434  0.9151  -1.8215
H       -2.9208  1.4568  -0.3803
H       -3.5909  0.0724  -1.2393
H       -3.5977  -0.0713  1.2326
H       -2.9215  -1.4561  0.3803
H       -1.1695  0.7917  1.7232
H       -0.9439  -0.9157  1.8210
H       1.2958  -0.7876  -1.7760
H       1.1254  0.9185  -1.9221
H       3.7082  0.0799  -1.2055
H       2.9985  1.4598  -0.3769
H       2.9994  -1.4587  0.3769
H       3.7081  -0.0783  1.2056
H       1.1255  -0.9186  1.9217
H       1.2953  0.7877  1.7763
H       -1.1629  -0.7921  -1.7229
