27

Co      -0.0736  0.0000  0.0000
Cl      0.0101  -2.3080  -0.2105
Cl      0.0097  2.3081  0.2106
N       -1.6366  0.1675  -1.4433
N       -1.6366  -0.1676  1.4432
N       1.6758  0.1625  -1.3598
N       1.6758  -0.1622  1.3598
C       -2.7605  0.3629  -0.5892
C       -2.7607  -0.3622  0.5891
C       2.8439  0.3727  -0.5746
C       2.8441  -0.3716  0.5746
H       -1.3988  1.0072  -1.9504
H       -2.9798  1.4015  -0.3586
H       -3.5388  -0.0011  -1.2533
H       -3.5456  0.0022  1.2467
H       -2.9805  -1.3965  0.3586
H       -1.4501  0.6961  1.9705
H       -1.3992  -1.0077  1.9499
H       1.4877  -0.7261  -1.8423
H       1.4578  0.9628  -1.9212
H       3.5878  0.0132  -1.2878
H       3.0780  1.4071  -0.3347
H       3.0789  -1.4060  0.3348
H       3.5878  -0.0116  1.2880
H       1.4580  -0.9628  1.9209
H       1.4872  0.7262  1.8427
H       -1.4436  -0.6964  -1.9702
