27

Co      0.0376  0.0732  0.0050
Cl      0.0002  -2.3823  -0.2177
Cl      -0.0001  2.2814  0.2077
N       -1.3121  0.1893  -1.2709
N       -1.4299  -0.2045  1.3863
N       1.3685  0.1631  -1.2311
N       1.2506  -0.1780  1.1257
C       -2.6957  0.3482  -0.6824
C       -2.7696  -0.3696  0.7068
C       2.7694  0.3771  -0.6984
C       2.6959  -0.3539  0.6639
H       -1.2814  0.9252  -1.9708
H       -2.7375  1.4288  -0.5956
H       -3.5963  0.0003  -1.1921
H       -3.7221  0.0054  1.1351
H       -2.8118  -1.4502  0.6320
H       -1.7233  0.5460  2.0651
H       -1.3736  -0.9973  2.0189
H       1.6067  -0.6767  -1.7465
H       1.3060  0.8420  -2.0015
H       3.6606  -0.0023  -1.2016
H       2.8261  1.4634  -0.6216
H       2.7533  -1.4402  0.5550
H       3.5280  -0.0209  1.2556
H       1.1033  -0.9725  1.7405
H       1.4993  0.5587  1.8119
H       -1.5426  -0.6202  -1.8672
