27

Co      0.0000  -0.0732  -0.0050
Cl      0.0002  -2.1966  -0.2141
Cl      -0.0001  2.2976  0.2243
N       -1.5791  0.1225  -1.4214
N       -1.5791  -0.1075  1.4163
N       1.5791  0.1281  -1.4213
N       1.5790  -0.1126  1.4163
C       -2.8070  0.4409  -0.6163
C       -2.8072  -0.4402  0.6213
C       2.8071  0.4409  -0.6164
C       2.8072  -0.4398  0.6216
H       -1.3839  0.8746  -2.0570
H       -2.7552  1.4900  -0.3364
H       -3.7098  0.2903  -1.2029
H       -3.7098  -0.2791  1.2081
H       -2.7558  -1.4893  0.3516
H       -1.6593  0.8117  1.8218
H       -1.4399  -0.7741  2.1626
H       1.6943  -0.7164  -1.9580
H       1.3841  0.8799  -2.0516
H       3.7098  0.2843  -1.2031
H       2.7609  1.4844  -0.3426
H       2.7617  -1.4833  0.3578
H       3.7097  -0.2726  1.2083
H       1.4398  -0.7790  2.1573
H       1.6534  0.8124  1.8271
H       -1.6999  -0.7161  -1.9528
