27

Co      0.0000  0.0732  0.0050
Cl      0.0002  -2.3880  -0.2290
Cl      -0.0001  2.2870  0.2190
N       -1.2543  0.1363  -1.2155
N       -1.3721  -0.1516  1.3309
N       1.3721  0.1363  -1.3259
N       1.2543  -0.1511  1.2205
C       -2.7644  0.3771  -0.6791
C       -2.8383  -0.3985  0.7034
C       2.8381  0.3992  -0.7086
C       2.7647  -0.3760  0.6742
H       -1.2876  0.8100  -2.0116
H       -2.4890  1.4479  -0.4441
H       -3.6957  0.3657  -1.2863
H       -3.8214  -0.3599  1.2292
H       -2.5633  -1.4735  0.4805
H       -1.5161  0.6795  1.8810
H       -1.3797  -0.8821  2.0598
H       1.4827  -0.7760  -1.7490
H       1.4351  0.7803  -2.1665
H       3.8282  0.3506  -1.2275
H       2.5628  1.4743  -0.4963
H       2.4900  -1.4511  0.4296
H       3.6956  -0.3738  1.2815
H       1.2324  -0.9108  1.9055
H       1.3753  0.6581  1.8144
H       -1.3355  -0.7537  -1.6831
