27

Co      -0.0376  -0.0732  -0.0050
Cl      0.0002  -2.3219  -0.2247
Cl      -0.0001  2.4230  0.2349
N       -1.5805  0.1151  -1.3567
N       -1.5804  -0.1001  1.3516
N       1.6419  0.1411  -1.5069
N       1.6419  -0.1257  1.5019
C       -2.7980  0.4558  -0.5969
C       -2.7982  -0.4551  0.6019
C       2.7981  0.4490  -0.6107
C       2.7982  -0.4479  0.6158
H       -1.0106  0.8655  -1.8822
H       -2.8436  1.4918  -0.2721
H       -3.6758  0.2381  -1.1863
H       -3.6826  -0.2269  1.1847
H       -2.8442  -1.4911  0.2872
H       -1.2783  0.9172  1.6228
H       -1.0666  -0.7650  1.9878
H       1.3953  -0.7877  -1.9400
H       1.1337  0.9186  -2.0066
H       3.7441  0.2252  -1.1182
H       2.8288  1.4794  -0.2988
H       2.8296  -1.4783  0.3140
H       3.7440  -0.2136  1.1234
H       1.1894  -0.8177  2.1123
H       1.3544  0.8838  1.8090
H       -1.3121  -0.8216  -1.7538
