27

Co      -0.1111  -0.0732  -0.0050
Cl      0.0101  -2.1802  -0.2028
Cl      0.0097  2.2812  0.2130
N       -1.4955  0.1457  -1.3278
N       -1.4955  -0.1307  1.3227
N       1.5962  0.1612  -1.3946
N       1.5961  -0.1458  1.3896
C       -2.7713  0.4105  -0.6106
C       -2.7716  -0.4098  0.6157
C       2.8548  0.4134  -0.6097
C       2.8549  -0.4123  0.6148
H       -1.1461  0.9779  -1.8173
H       -2.9376  1.4448  -0.3386
H       -3.4551  0.1263  -1.4231
H       -3.4619  -0.1151  1.4215
H       -2.9383  -1.4441  0.3538
H       -1.2756  0.8056  1.7305
H       -1.2021  -0.8775  1.9229
H       1.4424  -0.7055  -1.9145
H       1.3281  0.9813  -1.9179
H       3.5724  0.1338  -1.3893
H       3.0153  1.4478  -0.3352
H       3.0162  -1.4467  0.3504
H       3.5723  -0.1221  1.3945
H       1.3838  -0.8804  2.0236
H       1.4015  0.8016  1.7836
H       -1.3095  -0.7100  -1.8615
