27

Co      0.0000  0.0732  0.0050
Cl      0.0002  -2.3931  -0.2177
Cl      -0.0001  2.2922  0.2077
N       -1.3580  0.1789  -1.3372
N       -1.3580  -0.1942  1.3421
N       1.3581  0.1732  -1.3371
N       1.3580  -0.1881  1.3422
C       -2.7253  0.3518  -0.6830
C       -2.7256  -0.3511  0.6779
C       2.7254  0.3517  -0.6831
C       2.7256  -0.3506  0.6781
H       -1.5549  0.9298  -2.0806
H       -2.7812  1.4252  -0.5892
H       -3.5153  0.0399  -1.3537
H       -3.5085  -0.0489  1.3556
H       -2.7819  -1.4244  0.5740
H       -1.7538  0.4941  2.1129
H       -1.4998  -1.0314  1.9741
H       1.7261  -0.5907  -1.9753
H       1.5551  0.9239  -2.0864
H       3.5153  0.0452  -1.3539
H       2.7757  1.4308  -0.5842
H       2.7766  -1.4297  0.5691
H       3.5152  -0.0537  1.3490
H       1.4997  -1.0250  1.9801
H       1.7660  0.4948  2.1069
H       -1.7205  -0.5904  -1.9813
