27

Co      0.0000  0.0732  0.0050
Cl      0.0002  -2.3292  -0.2210
Cl      -0.0001  2.2282  0.2110
N       -1.4410  0.1326  -1.2577
N       -1.4410  -0.1479  1.2627
N       1.4410  0.1326  -1.2577
N       1.4409  -0.1474  1.2627
C       -2.7735  0.4088  -0.6351
C       -2.7738  -0.4081  0.6300
C       2.7736  0.4087  -0.6352
C       2.7738  -0.4076  0.6303
H       -1.2828  0.8149  -1.9816
H       -2.8425  1.4635  -0.4301
H       -3.5690  0.1277  -1.3097
H       -3.5690  -0.1367  1.3048
H       -2.8431  -1.4627  0.4149
H       -1.5078  0.6825  1.8218
H       -1.2277  -0.9165  1.8751
H       1.4677  -0.7791  -1.6898
H       1.2830  0.8146  -1.9818
H       3.5690  0.1273  -1.3098
H       2.8426  1.4635  -0.4307
H       2.8434  -1.4624  0.4156
H       3.5689  -0.1359  1.3049
H       1.2276  -0.9157  1.8754
H       1.5076  0.6833  1.8215
H       -1.4677  -0.7788  -1.6902
