27

Co      0.0000  0.0000  0.0000
Cl      0.0002  -2.2229  -0.2133
Cl      -0.0001  2.2229  0.2134
N       -1.3952  0.1355  -1.3897
N       -1.3952  -0.1356  1.3896
N       1.3952  0.1354  -1.3896
N       1.3951  -0.1351  1.3896
C       -2.7701  0.4457  -0.6778
C       -2.7703  -0.4450  0.6778
C       2.7701  0.4457  -0.6779
C       2.7703  -0.4446  0.6780
H       -1.1777  0.8670  -2.0354
H       -2.7398  1.4962  -0.4347
H       -3.5840  0.2660  -1.3664
H       -3.5840  -0.2649  1.3665
H       -2.7404  -1.4997  0.4347
H       -1.4567  0.7319  1.8893
H       -1.1782  -0.8675  2.0349
H       1.4569  -0.7325  -1.8886
H       1.1779  0.8667  -2.0356
H       3.5840  0.2657  -1.3665
H       2.7399  1.5005  -0.4353
H       2.7407  -1.4994  0.4353
H       3.5839  -0.2641  1.3667
H       1.1781  -0.8668  2.0353
H       1.4564  0.7326  1.8890
H       -1.4570  -0.7323  -1.8890
