27

Co      0.0000  0.0000  0.0000
Cl      0.0002  -2.2709  -0.2214
Cl      -0.0001  2.2709  0.2215
N       -1.3597  0.1272  -1.2862
N       -1.3597  -0.1273  1.2861
N       1.3597  0.1271  -1.2861
N       1.3597  -0.1268  1.2862
C       -2.6689  0.4113  -0.6326
C       -2.6691  -0.4106  0.6326
C       2.6690  0.4113  -0.6327
C       2.6691  -0.4102  0.6328
H       -1.1711  0.8472  -1.9571
H       -2.7092  1.4660  -0.4121
H       -3.4825  0.1613  -1.2865
H       -3.4825  -0.1602  1.2866
H       -2.7098  -1.4653  0.4121
H       -1.4141  0.7488  1.7743
H       -1.1715  -0.8477  1.9566
H       1.4143  -0.7494  -1.7736
H       1.1713  0.8469  -1.9573
H       3.4825  0.1609  -1.2866
H       2.7093  1.4660  -0.4128
H       2.7101  -1.4649  0.4128
H       3.4824  -0.1593  1.2867
H       1.1714  -0.8469  1.9570
H       1.4138  0.7495  1.7740
H       -1.4143  -0.7491  -1.7740
