27

Co      -0.0376  0.0092  -0.0583
Cl      0.0002  -2.3591  -0.2154
Cl      -0.0001  2.3530  0.2216
N       -1.4882  0.1479  -1.2810
N       -1.4685  -0.1419  1.2256
N       1.4319  0.1683  -1.3207
N       1.6478  -0.1619  1.4864
C       -2.8176  0.4017  -0.6201
C       -2.8178  -0.4096  0.6458
C       2.7440  0.3728  -0.6044
C       2.8914  -0.4244  0.6891
H       -1.3185  0.8933  -1.9355
H       -2.8753  1.4534  -0.4007
H       -3.6167  0.1431  -1.3031
H       -3.5945  -0.1015  1.3315
H       -2.9188  -1.4674  0.4535
H       -1.4863  0.7262  1.7257
H       -1.2269  -0.8681  1.8724
H       1.4772  -0.6528  -1.9060
H       1.2943  0.9703  -1.9109
H       3.5524  0.1506  -1.2938
H       2.7812  1.4245  -0.3703
H       2.9723  -1.4823  0.5262
H       3.7953  -0.0791  1.2044
H       1.4970  -0.8857  2.1572
H       1.7221  0.7149  1.9726
H       -1.5357  -0.7057  -1.7917
