27

Co      -0.0736  0.0000  0.0000
Cl      0.0101  -2.3616  -0.2297
Cl      0.0097  2.3617  0.2298
N       -1.6015  0.1173  -1.3595
N       -1.6015  -0.1174  1.3594
N       1.6408  0.1179  -1.2761
N       1.6407  -0.1176  1.2761
C       -2.7086  0.4131  -0.5684
C       -2.7088  -0.4124  0.5684
C       2.7920  0.4229  -0.5538
C       2.7922  -0.4218  0.5539
H       -1.1119  0.8491  -1.9285
H       -2.8178  1.4533  -0.2823
H       -3.6320  0.1095  -1.0630
H       -3.6388  -0.1084  1.0563
H       -2.8185  -1.4484  0.2823
H       -1.3235  0.8463  1.7240
H       -1.1123  -0.8497  1.9280
H       1.3555  -0.8763  -1.6014
H       1.1709  0.8103  -1.8937
H       3.6810  0.1182  -1.0974
H       2.9217  1.4533  -0.2640
H       2.9225  -1.4522  0.2641
H       3.6810  -0.1166  1.0976
H       1.1710  -0.8104  1.8933
H       1.3550  0.8764  1.6018
H       -1.3170  -0.8467  -1.7237
