27

Co      0.0376  -0.0092  0.0583
Cl      0.0002  -2.2864  -0.2190
Cl      -0.0001  2.2926  0.2129
N       -1.4941  0.1546  -1.3939
N       -1.5138  -0.1608  1.4490
N       1.5505  0.1340  -1.3540
N       1.3345  -0.1398  1.1884
C       -2.7664  0.4060  -0.6595
C       -2.7666  -0.3968  0.6337
C       2.8401  0.4349  -0.6754
C       2.6930  -0.3811  0.5908
H       -1.3135  0.9052  -2.0231
H       -2.8286  1.4638  -0.4663
H       -3.6244  0.1163  -1.2477
H       -3.6465  -0.1557  1.2196
H       -2.7863  -1.4484  0.4135
H       -1.5961  0.6815  1.9892
H       -1.4060  -0.9315  2.0853
H       1.6057  -0.7561  -1.8075
H       1.3381  0.8276  -2.0483
H       3.6886  0.1080  -1.2572
H       2.9228  1.4928  -0.4980
H       2.7334  -1.4328  0.3422
H       3.4456  -0.1764  1.3469
H       1.1357  -0.9123  1.8013
H       1.3598  0.6943  1.7416
H       -1.5472  -0.7027  -1.9226
