27

Co      -0.0376  0.0092  -0.0583
Cl      0.0002  -2.2337  -0.2048
Cl      -0.0001  2.2277  0.2111
N       -1.5395  0.1460  -1.3112
N       -1.5198  -0.1400  1.2559
N       1.4831  0.1665  -1.3509
N       1.6990  -0.1600  1.5166
C       -2.8130  0.4184  -0.6075
C       -2.8132  -0.4262  0.6332
C       2.7395  0.3894  -0.5918
C       2.8869  -0.4411  0.6766
H       -1.0311  0.9037  -1.8506
H       -2.9434  1.4569  -0.3366
H       -3.6362  0.1124  -1.2323
H       -3.6208  -0.0709  1.2539
H       -2.9870  -1.4709  0.3894
H       -1.1842  0.8191  1.6338
H       -0.9395  -0.8785  1.7875
H       1.1683  -0.7457  -1.8140
H       1.0070  0.9807  -1.8259
H       3.5719  0.1199  -1.2231
H       2.8494  1.4280  -0.3062
H       3.0404  -1.4858  0.4621
H       3.8148  -0.0484  1.1336
H       1.2096  -0.8961  2.0722
H       1.4132  0.8078  1.8807
H       -1.2268  -0.7986  -1.6997
