27

Co      0.0736  0.0732  0.0050
Cl      -0.0096  -2.2734  -0.2184
Cl      -0.0099  2.1724  0.2084
N       -1.4153  0.1292  -1.2998
N       -1.4153  -0.1445  1.3047
N       1.3761  0.1340  -1.3831
N       1.3761  -0.1489  1.3881
C       -2.7636  0.3986  -0.6475
C       -2.7639  -0.3979  0.6424
C       2.6803  0.3887  -0.6624
C       2.6805  -0.3876  0.6574
H       -1.6190  0.7987  -2.1458
H       -2.7241  1.4664  -0.4764
H       -3.5776  0.2059  -1.3328
H       -3.5708  -0.2149  1.3346
H       -2.7248  -1.4656  0.4612
H       -1.8606  0.5953  1.9779
H       -1.5639  -0.9003  2.0393
H       1.7831  -0.6625  -1.9734
H       1.5604  0.8426  -2.1754
H       3.5285  0.1908  -1.2986
H       2.6261  1.4566  -0.5015
H       2.6270  -1.4555  0.4864
H       3.5285  -0.1993  1.2937
H       1.5050  -0.9436  2.0691
H       1.8230  0.5666  2.1051
H       -1.8272  -0.6916  -1.8463
