27

Co      0.0376  -0.0092  0.0583
Cl      0.0002  -2.2622  -0.2132
Cl      -0.0001  2.2684  0.2072
N       -1.3253  0.1861  -1.3190
N       -1.3450  -0.1924  1.3741
N       1.3817  0.1599  -1.2791
N       1.1657  -0.1658  1.1135
C       -2.6813  0.3661  -0.7075
C       -2.6815  -0.3568  0.6818
C       2.7550  0.3950  -0.7234
C       2.6079  -0.3411  0.6389
H       -1.2454  0.9378  -1.9842
H       -2.7266  1.4498  -0.6325
H       -3.6131  -0.0017  -1.1589
H       -3.6285  -0.0377  1.1376
H       -2.6844  -1.4344  0.5797
H       -1.6258  0.5827  2.0122
H       -1.3379  -0.9641  2.0464
H       1.6478  -0.6574  -1.8250
H       1.2700  0.8547  -2.0150
H       3.6774  -0.0044  -1.1684
H       2.8152  1.4844  -0.6585
H       2.6259  -1.4244  0.5027
H       3.4343  -0.0640  1.2581
H       1.0676  -0.9394  1.7680
H       1.4019  0.5955  1.7591
H       -1.5837  -0.6039  -1.9457
