27

Co      -0.1111  -0.0732  -0.0050
Cl      0.0101  -2.2446  -0.2221
Cl      0.0097  2.3456  0.2323
N       -1.5078  0.1137  -1.2845
N       -1.5078  -0.0987  1.2794
N       1.6085  0.1348  -1.3513
N       1.6085  -0.1194  1.3463
C       -2.6641  0.4123  -0.5862
C       -2.6644  -0.4116  0.5912
C       2.7476  0.4152  -0.5853
C       2.7477  -0.4141  0.5904
H       -1.0682  0.8384  -1.8921
H       -2.6640  1.4729  -0.3450
H       -3.6951  0.1452  -0.9436
H       -3.6951  -0.1340  0.9488
H       -2.6647  -1.4679  0.3601
H       -1.4410  0.8673  1.6129
H       -1.1241  -0.7379  1.9977
H       1.6090  -0.7673  -1.8026
H       1.2501  0.8473  -1.9871
H       3.8124  0.1471  -0.9098
H       2.7473  1.4660  -0.3472
H       2.7482  -1.4649  0.3624
H       3.8124  -0.1354  0.9150
H       1.3058  -0.7464  2.0928
H       1.5681  0.8633  1.6717
H       -1.4817  -0.7717  -1.7439
