27

Co      -0.1111  0.0000  0.0000
Cl      0.0101  -2.2894  -0.2159
Cl      0.0097  2.2895  0.2160
N       -1.4229  0.1396  -1.3130
N       -1.4229  -0.1397  1.3129
N       1.5236  0.1551  -1.3798
N       1.5236  -0.1548  1.3798
C       -2.7247  0.4037  -0.6403
C       -2.7249  -0.4030  0.6403
C       2.8081  0.4066  -0.6394
C       2.8083  -0.4055  0.6394
H       -1.2072  0.8923  -1.9394
H       -2.7785  1.4584  -0.4317
H       -3.5427  0.1360  -1.2847
H       -3.5426  -0.1349  1.2848
H       -2.7792  -1.4577  0.4317
H       -1.4607  0.7113  1.8354
H       -1.2076  -0.8928  1.9389
H       1.5938  -0.7072  -1.8881
H       1.3892  0.8957  -2.0400
H       3.6600  0.1435  -1.2508
H       2.8562  1.4614  -0.4283
H       2.8571  -1.4603  0.4283
H       3.6599  -0.1419  1.2510
H       1.3893  -0.8957  2.0396
H       1.5933  0.7073  1.8885
H       -1.4609  -0.7117  -1.8351
