27

Co      0.0000  0.0732  0.0050
Cl      0.0002  -2.3236  -0.2097
Cl      -0.0001  2.2226  0.1997
N       -1.3712  0.1771  -1.2430
N       -1.3712  -0.1924  1.2480
N       1.3712  0.1714  -1.2430
N       1.3711  -0.1863  1.2480
C       -2.7859  0.3554  -0.6758
C       -2.7862  -0.3547  0.6707
C       2.7860  0.3553  -0.6759
C       2.7862  -0.3542  0.6710
H       -1.5599  0.9091  -2.0116
H       -2.8705  1.4288  -0.5847
H       -3.5311  0.0247  -1.3985
H       -3.5243  -0.0337  1.4004
H       -2.8711  -1.4280  0.5695
H       -1.7598  0.5076  1.9999
H       -1.5048  -1.0107  1.9050
H       1.7320  -0.6042  -1.8623
H       1.5601  0.9032  -2.0174
H       3.5311  0.0300  -1.3987
H       2.8650  1.4344  -0.5797
H       2.8658  -1.4333  0.5646
H       3.5310  -0.0385  1.3938
H       1.5047  -1.0043  1.9110
H       1.7719  0.5083  1.9939
H       -1.7264  -0.6039  -1.8683
