27

Co      -0.1111  0.0000  0.0000
Cl      0.0101  -2.2972  -0.2105
Cl      0.0097  2.2973  0.2106
N       -1.5030  0.1402  -1.3245
N       -1.5030  -0.1404  1.3244
N       1.6037  0.1557  -1.3913
N       1.6036  -0.1555  1.3913
C       -2.8569  0.4152  -0.5591
C       -2.8571  -0.4145  0.5590
C       2.9403  0.4181  -0.5581
C       2.9405  -0.4170  0.5582
H       -0.9872  0.9146  -1.8392
H       -3.0879  1.4482  -0.3143
H       -3.6733  -0.0258  -1.1416
H       -3.6801  0.0268  1.1350
H       -3.0886  -1.4475  0.3143
H       -1.2278  0.7923  1.7436
H       -0.9877  -0.9151  1.8388
H       1.3541  -0.7882  -1.7964
H       1.1692  0.9179  -1.9398
H       3.7906  -0.0183  -1.1035
H       3.1699  1.4512  -0.3109
H       3.1707  -1.4501  0.3109
H       3.7906  0.0198  1.1037
H       1.1693  -0.9180  1.9395
H       1.3536  0.7883  1.7967
H       -1.2212  -0.7927  -1.7433
