27

Co      0.0376  -0.0092  0.0583
Cl      0.0002  -2.3288  -0.2158
Cl      -0.0001  2.3350  0.2097
N       -1.3466  0.1865  -1.3011
N       -1.3663  -0.1928  1.3562
N       1.4030  0.1603  -1.2612
N       1.1870  -0.1662  1.0956
C       -2.7325  0.3562  -0.6930
C       -2.7328  -0.3469  0.6672
C       2.8062  0.3851  -0.7089
C       2.6591  -0.3313  0.6243
H       -1.4995  0.9626  -2.0001
H       -2.8176  1.4327  -0.6110
H       -3.5061  0.0142  -1.3707
H       -3.5214  -0.0535  1.3493
H       -2.7753  -1.4173  0.5583
H       -1.7631  0.5361  2.0649
H       -1.5920  -0.9889  2.0623
H       1.7851  -0.6107  -1.8776
H       1.5240  0.8795  -2.0309
H       3.5703  0.0115  -1.3802
H       2.9062  1.4673  -0.6371
H       2.7168  -1.4073  0.4813
H       3.3273  -0.0799  1.4699
H       1.3217  -0.9642  1.7839
H       1.5392  0.5489  1.8117
H       -1.7210  -0.5573  -1.9983
