27

Co      0.1111  -0.0092  0.0583
Cl      -0.0096  -2.3452  -0.2270
Cl      -0.0099  2.3514  0.2210
N       -1.4261  0.1425  -1.3856
N       -1.4458  -0.1488  1.4407
N       1.4432  0.1269  -1.4291
N       1.2272  -0.1327  1.2634
C       -2.8095  0.4490  -0.6901
C       -2.8098  -0.4397  0.6644
C       2.7999  0.4680  -0.7208
C       2.6528  -0.4142  0.6362
H       -1.2103  0.8582  -2.0418
H       -2.8050  1.5025  -0.4640
H       -3.6219  0.2373  -1.3735
H       -3.6440  -0.2767  1.3454
H       -2.7628  -1.4913  0.4113
H       -1.5305  0.7169  1.9434
H       -1.3028  -0.8845  2.1039
H       1.4959  -0.7621  -1.8893
H       1.1761  0.8248  -2.0963
H       3.6371  0.2143  -1.3487
H       2.8012  1.5259  -0.5202
H       2.6118  -1.4659  0.3644
H       3.3941  -0.2826  1.4385
H       0.9737  -0.9095  1.8493
H       1.2500  0.7002  1.8234
H       -1.4816  -0.7381  -1.8768
