27

Co      0.0376  -0.0092  0.0583
Cl      0.0002  -2.3452  -0.2270
Cl      -0.0001  2.3514  0.2210
N       -1.4298  0.2108  -1.4234
N       -1.4495  -0.2171  1.4785
N       1.4862  0.1903  -1.3835
N       1.2701  -0.1961  1.2179
C       -2.7463  0.4055  -0.7663
C       -2.7466  -0.3962  0.7405
C       2.8200  0.4344  -0.7822
C       2.6729  -0.3805  0.6976
H       -1.3945  0.8216  -2.2429
H       -2.5703  1.4676  -0.5065
H       -3.6208  0.3704  -1.4401
H       -3.6429  -0.4098  1.4120
H       -2.5281  -1.4564  0.4538
H       -1.2744  0.7927  1.7630
H       -1.4870  -0.8479  2.3050
H       1.2840  -0.8673  -1.5813
H       1.4191  0.7441  -2.2614
H       3.6850  0.3688  -1.4539
H       2.6603  1.5008  -0.5382
H       2.4709  -1.4408  0.3824
H       3.4420  -0.4372  1.5436
H       1.2101  -0.8288  2.0144
H       1.0381  0.8055  1.5154
H       -1.2255  -0.8139  -1.6964
