27

Co      0.0000  0.0000  0.0000
Cl      0.0002  -2.2471  -0.2191
Cl      -0.0001  2.2471  0.2192
N       -1.6062  0.1082  -1.4392
N       -1.6062  -0.1083  1.4391
N       1.6062  0.1137  -1.4392
N       1.6062  -0.1134  1.4392
C       -2.8002  0.4477  -0.5917
C       -2.8005  -0.4470  0.5917
C       2.8003  0.4477  -0.5918
C       2.8004  -0.4466  0.5919
H       -1.3303  0.8512  -2.0490
H       -2.8501  1.4764  -0.2558
H       -3.5742  0.2785  -1.3411
H       -3.5809  -0.2774  1.3345
H       -2.8508  -1.4757  0.2558
H       -1.4692  0.8180  1.8536
H       -1.3308  -0.8517  2.0485
H       1.4570  -0.8186  -1.8585
H       1.3305  0.8565  -2.0436
H       3.5741  0.2724  -1.3412
H       2.8559  1.4708  -0.2620
H       2.8567  -1.4697  0.2621
H       3.5741  -0.2709  1.3414
H       1.3307  -0.8566  2.0432
H       1.4565  0.8187  1.8588
H       -1.4627  -0.8184  -1.8532
