27

Co      -0.0736  0.0092  -0.0583
Cl      0.0101  -2.2501  -0.2161
Cl      0.0097  2.2440  0.2223
N       -1.5375  0.1137  -1.4533
N       -1.6357  -0.1077  1.5084
N       1.5768  0.1143  -1.3699
N       1.6749  -0.1079  1.4251
C       -2.7217  0.4275  -0.5715
C       -2.7956  -0.4574  0.6267
C       2.8052  0.4372  -0.5569
C       2.8789  -0.4668  0.6122
H       -1.2733  0.9009  -2.0177
H       -2.7428  1.4531  -0.2159
H       -3.4944  0.2987  -1.3393
H       -3.6116  -0.2424  1.3020
H       -2.8600  -1.4892  0.3202
H       -1.4962  0.8248  1.9173
H       -1.3289  -0.8462  2.1092
H       1.4300  -0.8149  -1.7947
H       1.3323  0.8621  -1.9829
H       3.5434  0.3074  -1.3737
H       2.8466  1.4573  -0.1976
H       2.9640  -1.4930  0.3020
H       3.6538  -0.2506  1.3432
H       1.3877  -0.8069  2.0745
H       1.5277  0.8549  1.7951
H       -1.3915  -0.7822  -1.9170
