27

Co      0.1111  0.0000  0.0000
Cl      -0.0096  -2.2787  -0.2159
Cl      -0.0099  2.2787  0.2160
N       -1.4913  0.1480  -1.2937
N       -1.4913  -0.1481  1.2936
N       1.3906  0.1323  -1.2268
N       1.3906  -0.1321  1.2268
C       -2.8152  0.4102  -0.6321
C       -2.8155  -0.4095  0.6320
C       2.7319  0.4072  -0.6332
C       2.7321  -0.4061  0.6333
H       -1.3459  0.8673  -1.9787
H       -2.8813  1.4650  -0.4205
H       -3.6277  0.1367  -1.2902
H       -3.6277  -0.1356  1.2903
H       -2.8819  -1.4642  0.4205
H       -1.5541  0.7282  1.7846
H       -1.3463  -0.8678  1.9783
H       1.4214  -0.7335  -1.7304
H       1.1643  0.8633  -1.8786
H       3.5103  0.1284  -1.3243
H       2.8038  1.4620  -0.4251
H       2.8046  -1.4609  0.4252
H       3.5103  -0.1269  1.3244
H       1.1645  -0.8634  1.8783
H       1.4209  0.7336  1.7308
H       -1.5544  -0.7285  -1.7843
