27

Co      0.0736  0.0000  0.0000
Cl      -0.0096  -2.2709  -0.2214
Cl      -0.0099  2.2709  0.2215
N       -1.3805  0.1371  -1.2070
N       -1.3805  -0.1372  1.2069
N       1.3413  0.1419  -1.2903
N       1.3413  -0.1416  1.2903
C       -2.6830  0.4022  -0.7065
C       -2.6833  -0.4015  0.7064
C       2.5997  0.3923  -0.7213
C       2.5999  -0.3912  0.7214
H       -1.5044  0.8211  -2.0140
H       -2.5821  1.4785  -0.5276
H       -3.4629  0.3019  -1.4673
H       -3.4561  -0.3008  1.4743
H       -2.5828  -1.4778  0.5276
H       -1.7426  0.6643  1.7842
H       -1.5048  -0.8216  2.0136
H       1.7055  -0.6355  -1.9110
H       1.4457  0.8649  -2.0437
H       3.4138  0.2868  -1.4374
H       2.4799  1.4687  -0.5527
H       2.4807  -1.4676  0.5528
H       3.4137  -0.2852  1.4376
H       1.4459  -0.8650  2.0434
H       1.7050  0.6356  1.9114
H       -1.7497  -0.6646  -1.7839
