27

Co      0.0000  0.0732  0.0050
Cl      0.0002  -2.2626  -0.2184
Cl      -0.0001  2.1617  0.2084
N       -1.3780  0.1317  -1.2553
N       -1.3780  -0.1470  1.2603
N       1.3780  0.1317  -1.2553
N       1.3779  -0.1465  1.2603
C       -2.7291  0.4045  -0.6622
C       -2.7293  -0.4038  0.6572
C       2.7292  0.4045  -0.6624
C       2.7293  -0.4034  0.6574
H       -1.3283  0.7775  -2.0631
H       -2.6784  1.4796  -0.5105
H       -3.6663  0.1550  -1.1587
H       -3.6594  -0.1640  1.1606
H       -2.6790  -1.4789  0.4954
H       -1.6899  0.6385  1.8685
H       -1.2732  -0.8791  1.9566
H       1.6566  -0.7351  -1.7365
H       1.3285  0.7773  -2.0634
H       3.6662  0.1546  -1.1588
H       2.6785  1.4796  -0.5112
H       2.6793  -1.4785  0.4961
H       3.6662  -0.1631  1.1539
H       1.2731  -0.8783  1.9570
H       1.6964  0.6392  1.8682
H       -1.6566  -0.7348  -1.7369
