27

Co      0.0000  0.0000  0.0000
Cl      0.0002  -2.3668  -0.2185
Cl      -0.0001  2.3669  0.2186
N       -1.5881  0.1025  -1.4217
N       -1.5881  -0.1026  1.4216
N       1.5882  0.1024  -1.4216
N       1.5881  -0.1021  1.4216
C       -2.7908  0.4444  -0.6197
C       -2.7910  -0.4437  0.6196
C       2.7909  0.4443  -0.6198
C       2.7910  -0.4432  0.6199
H       -1.0863  1.0274  -1.7569
H       -3.0390  1.4787  -0.3948
H       -3.4787  0.0694  -1.3985
H       -3.4854  -0.0683  1.3919
H       -3.0396  -1.4780  0.3948
H       -1.6057  0.6324  2.1432
H       -1.0867  -1.0279  1.7565
H       1.5991  -0.6330  -2.1425
H       1.0865  1.0271  -1.7638
H       3.4786  0.0624  -1.3986
H       3.0391  1.4788  -0.3954
H       3.0399  -1.4777  0.3954
H       3.4786  -0.0608  1.3988
H       1.0933  -1.0272  1.7635
H       1.5986  0.6331  2.1429
H       -1.5991  -0.6327  -2.1429
