27

Co      0.0000  -0.0640  -0.0633
Cl      0.0002  -2.2420  -0.2078
Cl      -0.0001  2.3369  0.2241
N       -1.4242  0.1580  -1.3213
N       -1.5223  -0.1369  1.3714
N       1.4242  0.1580  -1.3213
N       1.5223  -0.1364  1.3714
C       -2.7296  0.3898  -0.6096
C       -2.8034  -0.4198  0.6699
C       2.7296  0.3898  -0.6098
C       2.8034  -0.4194  0.6701
H       -1.2427  0.9722  -1.8905
H       -2.7591  1.4415  -0.3699
H       -3.5461  0.1726  -1.2805
H       -3.6565  -0.1062  1.2550
H       -2.8763  -1.4776  0.4894
H       -1.5560  0.7784  1.7982
H       -1.3539  -0.8166  2.0881
H       1.4985  -0.6432  -1.9288
H       1.2429  0.9719  -1.8908
H       3.5461  0.1722  -1.2806
H       2.7592  1.4415  -0.3706
H       2.8766  -1.4772  0.4900
H       3.6564  -0.1053  1.2552
H       1.3538  -0.8158  2.0885
H       1.5557  0.7791  1.7979
H       -1.4985  -0.6399  -1.9292
