27

Co      0.0376  0.0000  0.0000
Cl      0.0002  -2.2121  -0.2133
Cl      -0.0001  2.2122  0.2134
N       -1.3806  0.1450  -1.3787
N       -1.3806  -0.1451  1.3786
N       1.3192  0.1245  -1.2284
N       1.3191  -0.1242  1.2284
C       -2.7967  0.3941  -0.6710
C       -2.7969  -0.3934  0.6709
C       2.7968  0.4009  -0.6574
C       2.7969  -0.3998  0.6575
H       -1.3258  0.8946  -2.0522
H       -2.6056  1.4445  -0.3794
H       -3.6701  0.3656  -1.3458
H       -3.6701  -0.3645  1.3459
H       -2.6062  -1.4481  0.3794
H       -1.2737  0.7558  1.8479
H       -1.3262  -0.8951  2.0518
H       1.1851  -0.7906  -1.6662
H       1.2030  0.8465  -1.9227
H       3.6018  0.3721  -1.4142
H       2.6262  1.4556  -0.3595
H       2.6270  -1.4545  0.3596
H       3.6018  -0.3705  1.4144
H       1.2032  -0.8466  1.9224
H       1.1846  0.7907  1.6666
H       -1.2739  -0.7562  -1.8476
