27

Co      0.0000  0.0732  0.0050
Cl      0.0002  -2.2570  -0.2072
Cl      -0.0001  2.1560  0.1972
N       -1.3348  0.1657  -1.3066
N       -1.3348  -0.1810  1.3116
N       1.3348  0.1600  -1.3066
N       1.3347  -0.1749  1.3116
C       -2.7829  0.4100  -0.7012
C       -2.7831  -0.4093  0.6962
C       2.7829  0.4100  -0.7014
C       2.7831  -0.4089  0.6964
H       -1.1400  0.8946  -1.9600
H       -2.8660  1.4661  -0.5306
H       -3.5236  0.1077  -1.4365
H       -3.5236  -0.1167  1.4316
H       -2.8667  -1.4696  0.5155
H       -1.3700  0.6212  1.9260
H       -1.0849  -0.9961  1.8535
H       1.3355  -0.7177  -1.7884
H       1.1402  0.8886  -1.9658
H       3.5236  0.1129  -1.4366
H       2.8605  1.4760  -0.5256
H       2.8614  -1.4749  0.5105
H       3.5235  -0.1214  1.4317
H       1.0848  -0.9897  1.8595
H       1.3753  0.6219  1.9200
H       -1.3299  -0.7175  -1.7944
