27

Co      0.0000  0.0732  0.0050
Cl      0.0002  -2.2570  -0.2072
Cl      -0.0001  2.1560  0.1972
N       -1.3303  0.2296  -1.2742
N       -1.3303  -0.2449  1.2792
N       1.3303  0.2240  -1.2742
N       1.3302  -0.2388  1.2792
C       -2.7475  0.3266  -0.6905
C       -2.7478  -0.3259  0.6854
C       2.7476  0.3266  -0.6906
C       2.7478  -0.3255  0.6857
H       -1.5151  0.8172  -2.2078
H       -2.6969  1.4073  -0.5677
H       -3.6959  0.0593  -1.1675
H       -3.6891  -0.0683  1.1694
H       -2.6975  -1.4066  0.5525
H       -1.4013  0.6533  1.7288
H       -1.4600  -0.9187  2.1013
H       1.3736  -0.7499  -1.5911
H       1.5153  0.8112  -2.2070
H       3.6958  0.0712  -1.1676
H       2.6913  1.4129  -0.5627
H       2.6922  -1.4118  0.5476
H       3.6958  -0.0797  1.1627
H       1.4533  -0.9123  2.1006
H       1.4135  0.6541  1.7228
H       -1.3680  -0.7496  -1.5972
