27

Co      0.0000  0.0000  0.0000
Cl      0.0002  -2.3136  -0.2217
Cl      -0.0001  2.3137  0.2218
N       -1.6421  0.1158  -1.4213
N       -1.6421  -0.1160  1.4212
N       1.6421  0.1214  -1.4212
N       1.6420  -0.1211  1.4213
C       -2.8514  0.4451  -0.5917
C       -2.8517  -0.4444  0.5917
C       2.8515  0.4451  -0.5918
C       2.8517  -0.4440  0.5919
H       -1.3662  0.8614  -2.0285
H       -2.9193  1.4739  -0.2635
H       -3.6126  0.2580  -1.3565
H       -3.6193  -0.2569  1.3498
H       -2.9199  -1.4732  0.2635
H       -1.4974  0.8078  1.8408
H       -1.3666  -0.8620  2.0280
H       1.4852  -0.8084  -1.8457
H       1.3664  0.8668  -2.0231
H       3.6125  0.2520  -1.3566
H       2.9250  1.4683  -0.2697
H       2.9258  -1.4672  0.2698
H       3.6125  -0.2504  1.3568
H       1.3665  -0.8668  2.0228
H       1.4847  0.8085  1.8460
H       -1.4909  -0.8081  -1.8404
