27

Co      0.1111  0.0000  0.0000
Cl      -0.0096  -2.3375  -0.2239
Cl      -0.0099  2.3375  0.2240
N       -1.3620  0.1379  -1.3067
N       -1.3620  -0.1381  1.3066
N       1.2613  0.1223  -1.2398
N       1.2612  -0.1220  1.2398
C       -2.8235  0.4342  -0.6827
C       -2.8237  -0.4335  0.6826
C       2.7402  0.4312  -0.6838
C       2.7403  -0.4301  0.6839
H       -1.5129  0.8298  -2.1095
H       -2.7356  1.4978  -0.4895
H       -3.5909  0.2935  -1.4597
H       -3.5841  -0.2924  1.4666
H       -2.7362  -1.5013  0.4896
H       -1.7858  0.6582  1.9020
H       -1.5134  -0.8303  2.1090
H       1.6599  -0.6636  -1.8478
H       1.3314  0.8258  -2.0094
H       3.4735  0.2852  -1.4938
H       2.6581  1.4990  -0.4942
H       2.6589  -1.4979  0.4942
H       3.4735  -0.2836  1.4939
H       1.3315  -0.8259  2.0091
H       1.6594  0.6637  1.8482
H       -1.7928  -0.6586  -1.9017
