27

Co      0.0000  0.0000  0.0000
Cl      0.0002  -2.2121  -0.2133
Cl      -0.0001  2.2122  0.2134
N       -1.3855  0.1855  -1.2915
N       -1.3855  -0.1856  1.2914
N       1.3855  0.1854  -1.2914
N       1.3855  -0.1851  1.2914
C       -2.7351  0.3727  -0.6327
C       -2.7354  -0.3720  0.6327
C       2.7352  0.3727  -0.6329
C       2.7354  -0.3716  0.6330
H       -1.4285  0.7880  -2.1612
H       -2.6906  1.4274  -0.3764
H       -3.5883  0.2037  -1.2725
H       -3.5883  -0.2026  1.2727
H       -2.6913  -1.4267  0.3764
H       -1.2383  0.8399  1.5505
H       -1.4289  -0.7885  2.1607
H       1.2386  -0.8405  -1.5498
H       1.4287  0.7877  -2.1548
H       3.5883  0.2099  -1.2726
H       2.6907  1.4275  -0.3770
H       2.6916  -1.4264  0.3771
H       3.5882  -0.2084  1.2728
H       1.4222  -0.7878  2.1544
H       1.2381  0.8406  1.5502
H       -1.2386  -0.8402  -1.5502
