27

Co      0.0376  0.0640  0.0633
Cl      0.0002  -2.3261  -0.2240
Cl      -0.0001  2.2313  0.2079
N       -1.4618  0.1398  -1.3052
N       -1.4815  -0.1612  1.3654
N       1.5182  0.1192  -1.2654
N       1.3022  -0.1402  1.1048
C       -2.7735  0.4096  -0.6548
C       -2.7738  -0.4003  0.6240
C       2.8472  0.4385  -0.6707
C       2.7001  -0.3847  0.5811
H       -1.2982  0.8259  -2.0152
H       -2.8537  1.4674  -0.4667
H       -3.5921  0.1041  -1.2897
H       -3.6142  -0.1535  1.2565
H       -2.8114  -1.4520  0.3988
H       -1.5768  0.6550  1.9472
H       -1.3352  -0.9532  1.9713
H       1.5460  -0.8256  -1.6342
H       1.3228  0.7484  -2.0403
H       3.6563  0.0958  -1.2992
H       2.9479  1.4963  -0.4984
H       2.7586  -1.4363  0.3274
H       3.4133  -0.1742  1.3839
H       1.0649  -0.9341  1.6872
H       1.3405  0.6678  1.6996
H       -1.4875  -0.7722  -1.7493
