27

Co      0.0000  0.0000  0.0000
Cl      0.0002  -2.2307  -0.2079
Cl      -0.0001  2.2307  0.2080
N       -1.5604  0.1532  -1.3587
N       -1.5604  -0.1533  1.3586
N       1.5604  0.1531  -1.3587
N       1.5603  -0.1529  1.3587
C       -2.8130  0.4192  -0.6272
C       -2.8133  -0.4185  0.6272
C       2.8131  0.4192  -0.6273
C       2.8132  -0.4181  0.6274
H       -1.0466  0.9147  -1.8841
H       -2.9546  1.4609  -0.3733
H       -3.6593  0.0888  -1.2123
H       -3.6660  -0.0877  1.2056
H       -2.9553  -1.4601  0.3733
H       -1.2532  0.7916  1.7591
H       -1.0470  -0.9153  1.8837
H       1.2466  -0.7922  -1.7584
H       1.0468  0.9144  -1.8844
H       3.6592  0.0884  -1.2124
H       2.9547  1.4609  -0.3739
H       2.9555  -1.4598  0.3739
H       3.6592  -0.0868  1.2126
H       1.0469  -0.9145  1.8840
H       1.2461  0.7923  1.7588
H       -1.2467  -0.7920  -1.7588
