27

Co      0.0000  -0.0732  -0.0050
Cl      0.0002  -2.3111  -0.2247
Cl      -0.0001  2.4122  0.2349
N       -1.5794  0.1219  -1.3000
N       -1.5794  -0.1069  1.2949
N       1.5795  0.1274  -1.3000
N       1.5794  -0.1120  1.2949
C       -2.7570  0.4039  -0.5711
C       -2.7573  -0.4032  0.5762
C       2.7571  0.4039  -0.5712
C       2.7573  -0.4028  0.5764
H       -1.4131  0.8650  -1.9582
H       -2.7938  1.4572  -0.3215
H       -3.6467  0.1650  -1.1384
H       -3.6467  -0.1538  1.1436
H       -2.7944  -1.4523  0.3367
H       -1.6448  0.8183  1.6940
H       -1.4691  -0.7645  2.0637
H       1.6798  -0.7230  -1.8302
H       1.4133  0.8703  -1.9528
H       3.6467  0.1590  -1.1385
H       2.7995  1.4474  -0.3278
H       2.8003  -1.4463  0.3430
H       3.6466  -0.1474  1.1437
H       1.4690  -0.7694  2.0585
H       1.6389  0.8191  1.6993
H       -1.6854  -0.7228  -1.8250
