27

Co      0.0000  0.0000  0.0000
Cl      0.0002  -2.2760  -0.2101
Cl      -0.0001  2.2761  0.2102
N       -1.2670  0.1811  -1.3830
N       -1.2670  -0.1812  1.3829
N       1.2670  0.1754  -1.3829
N       1.2670  -0.1751  1.3829
C       -2.7485  0.3405  -0.7120
C       -2.7487  -0.3398  0.7120
C       2.7485  0.3405  -0.7121
C       2.7487  -0.3394  0.7122
H       -1.5364  0.9856  -2.0864
H       -2.5546  1.4097  -0.5283
H       -3.5823  0.2813  -1.4240
H       -3.5754  -0.2802  1.4309
H       -2.5552  -1.4132  0.5283
H       -1.4753  0.5844  2.0468
H       -1.5368  -0.9861  2.0859
H       1.4879  -0.5850  -2.0405
H       1.5366  0.9797  -2.0922
H       3.5822  0.2865  -1.4241
H       2.5491  1.4195  -0.5233
H       2.5499  -1.4184  0.5233
H       3.5822  -0.2849  1.4243
H       1.5368  -0.9797  2.0919
H       1.4874  0.5851  2.0408
H       -1.4823  -0.5848  -2.0465
