27

Co      0.0376  0.0640  0.0633
Cl      0.0002  -2.3957  -0.2320
Cl      -0.0001  2.3009  0.2159
N       -1.3597  0.1972  -1.4177
N       -1.3794  -0.2186  1.4779
N       1.4161  0.1766  -1.3778
N       1.2001  -0.1976  1.2172
C       -2.7874  0.3987  -0.7273
C       -2.7877  -0.3894  0.6965
C       2.8611  0.4276  -0.7432
C       2.7140  -0.3737  0.6536
H       -1.4994  0.7354  -2.3827
H       -2.5783  1.4726  -0.5336
H       -3.7908  0.2821  -1.2040
H       -3.8061  -0.3316  1.1776
H       -2.5361  -1.4614  0.4657
H       -1.5177  0.6991  1.8883
H       -1.5363  -0.8627  2.3388
H       1.4937  -0.8696  -1.5753
H       1.5239  0.6579  -2.4012
H       3.8550  0.2804  -1.2135
H       2.6726  1.5058  -0.5653
H       2.4832  -1.4458  0.3943
H       3.6120  -0.3589  1.2982
H       1.2594  -0.8436  2.0481
H       1.2882  0.7118  1.6407
H       -1.4352  -0.8162  -1.6904
