27

Co      0.0000  0.0000  0.0000
Cl      0.0002  -2.2307  -0.2079
Cl      -0.0001  2.2307  0.2080
N       -1.5776  0.1527  -1.3936
N       -1.4598  -0.1528  1.2831
N       1.4598  0.1527  -1.2831
N       1.5776  -0.1524  1.3936
C       -2.8566  0.4162  -0.6545
C       -2.7832  -0.3934  0.6250
C       2.7831  0.3941  -0.6252
C       2.8568  -0.4151  0.6547
H       -1.4198  0.8874  -2.0589
H       -2.9183  1.4709  -0.4581
H       -3.7157  0.1246  -1.2436
H       -3.5831  -0.1382  1.3026
H       -2.8453  -1.4481  0.4066
H       -1.4989  0.6899  1.8254
H       -1.2730  -0.9174  1.9038
H       1.4991  -0.6905  -1.8246
H       1.2727  0.9166  -1.9045
H       3.5831  0.1389  -1.3026
H       2.8448  1.4488  -0.4072
H       2.9192  -1.4698  0.4588
H       3.7156  -0.1226  1.2439
H       1.4202  -0.8872  2.0588
H       1.6459  0.7127  1.8913
H       -1.6464  -0.7124  -1.8913
