27

Co      -0.0376  0.0000  0.0000
Cl      0.0002  -2.3668  -0.2185
Cl      -0.0001  2.3669  0.2186
N       -1.6076  0.1502  -1.3345
N       -1.6076  -0.1504  1.3344
N       1.6690  0.1706  -1.4846
N       1.6690  -0.1704  1.4847
C       -2.7293  0.4303  -0.5960
C       -2.7295  -0.4296  0.5960
C       2.7293  0.4235  -0.6098
C       2.7295  -0.4224  0.6099
H       -0.9708  0.9062  -1.8295
H       -3.1023  1.4762  -0.4209
H       -3.5423  -0.1289  -1.1288
H       -3.5491  0.1300  1.1222
H       -3.1029  -1.4712  0.4209
H       -1.4612  0.7528  1.7804
H       -0.9712  -0.9068  1.8290
H       1.5434  -0.7193  -1.9606
H       1.0939  0.9538  -1.9595
H       3.6106  -0.1361  -1.0607
H       3.0819  1.4651  -0.4420
H       3.0827  -1.4640  0.4420
H       3.6105  0.1377  1.0608
H       1.0940  -0.9538  1.9591
H       1.5429  0.7194  1.9610
H       -1.4547  -0.7532  -1.7801
