27

Co      0.0736  0.0640  0.0633
Cl      -0.0096  -2.3849  -0.2320
Cl      -0.0099  2.2901  0.2159
N       -1.4053  0.1218  -1.1965
N       -1.4250  -0.1432  1.2566
N       1.4839  0.1266  -1.3902
N       1.2679  -0.1476  1.2296
C       -2.7618  0.4180  -0.6406
C       -2.7620  -0.4087  0.6098
C       2.7521  0.4302  -0.6849
C       2.6050  -0.3763  0.5953
H       -1.2181  0.7720  -1.9436
H       -2.8488  1.4757  -0.4415
H       -3.5344  0.1228  -1.3356
H       -3.5565  -0.1723  1.3025
H       -2.8066  -1.4603  0.3736
H       -1.5091  0.6948  1.7966
H       -1.2550  -0.8993  1.8997
H       1.5229  -0.8019  -1.7921
H       1.3067  0.7863  -2.1279
H       3.6179  0.0930  -1.2425
H       2.8245  1.4880  -0.5182
H       2.6351  -1.4280  0.3472
H       3.3748  -0.1715  1.3272
H       1.0488  -0.9721  1.7748
H       1.3174  0.6440  1.8575
H       -1.4198  -0.8120  -1.5987
