27

Co      -0.1111  -0.0640  -0.0633
Cl      0.0101  -2.3250  -0.2216
Cl      0.0097  2.4199  0.2379
N       -1.6129  0.1248  -1.4007
N       -1.5932  -0.1037  1.3403
N       1.5958  0.1460  -1.3570
N       1.8117  -0.1244  1.5177
C       -2.7014  0.4086  -0.5534
C       -2.7016  -0.4165  0.5842
C       2.7112  0.3895  -0.5230
C       2.8586  -0.4411  0.6128
H       -1.1117  0.9173  -1.9029
H       -2.7815  1.4458  -0.2453
H       -3.6413  0.1454  -1.0410
H       -3.6259  -0.0937  1.0676
H       -2.8251  -1.4556  0.3132
H       -1.2739  0.9002  1.6407
H       -1.0756  -0.7911  1.9459
H       1.3369  -0.7603  -1.8304
H       1.1464  0.9558  -1.8432
H       3.6260  0.1620  -1.0661
H       2.7912  1.4168  -0.1960
H       2.9822  -1.4746  0.3670
H       3.8689  -0.0803  0.9817
H       1.4046  -0.7702  2.1956
H       1.5414  0.9183  1.7658
H       -1.3569  -0.7838  -1.8380
