27

Co      0.0736  0.0000  0.0000
Cl      -0.0096  -2.2760  -0.2101
Cl      -0.0099  2.2761  0.2102
N       -1.3564  0.1837  -1.3159
N       -1.3564  -0.1838  1.3158
N       1.3172  0.1829  -1.3992
N       1.3171  -0.1826  1.3992
C       -2.7158  0.3665  -0.6876
C       -2.7160  -0.3658  0.6876
C       2.6325  0.3567  -0.7025
C       2.6327  -0.3556  0.7026
H       -1.3025  0.9335  -1.9970
H       -2.7393  1.4472  -0.5908
H       -3.6469  0.0365  -1.1566
H       -3.6401  -0.0354  1.1635
H       -2.7400  -1.4465  0.5908
H       -1.6184  0.6034  1.9308
H       -1.3029  -0.9340  1.9965
H       1.5869  -0.5746  -2.0520
H       1.2438  0.9717  -2.0322
H       3.5978  0.0270  -1.1224
H       2.6357  1.4430  -0.6103
H       2.6366  -1.4419  0.6103
H       3.5978  -0.0254  1.1226
H       1.2440  -0.9717  2.0319
H       1.5864  0.5747  2.0524
H       -1.6254  -0.6038  -1.9305
