27

Co      0.0000  -0.0732  -0.0050
Cl      0.0002  -2.3163  -0.2134
Cl      -0.0001  2.4173  0.2236
N       -1.5836  0.1740  -1.3918
N       -1.5836  -0.1590  1.3866
N       1.5837  0.1740  -1.3917
N       1.5836  -0.1585  1.3867
C       -2.7555  0.3610  -0.6064
C       -2.7557  -0.3603  0.6114
C       2.7556  0.3610  -0.6065
C       2.7557  -0.3599  0.6117
H       -1.4337  1.0005  -1.9517
H       -2.8698  1.4199  -0.4243
H       -3.6509  0.0261  -1.1270
H       -3.6509  -0.0149  1.1322
H       -2.8705  -1.4150  0.4394
H       -1.6168  0.7125  1.8804
H       -1.4897  -0.9000  2.0573
H       1.6574  -0.6172  -2.0110
H       1.4339  1.0002  -1.9520
H       3.6509  0.0257  -1.1271
H       2.8699  1.4157  -0.4249
H       2.8708  -1.4146  0.4401
H       3.6508  -0.0140  1.1323
H       1.4896  -0.8992  2.0577
H       1.6165  0.7132  1.8800
H       -1.6575  -0.6169  -2.0113
