27

Co      0.0000  0.0732  0.0050
Cl      0.0002  -2.3987  -0.2290
Cl      -0.0001  2.2978  0.2190
N       -1.4278  0.1345  -1.3519
N       -1.4278  -0.1497  1.3568
N       1.4279  0.1344  -1.3518
N       1.4278  -0.1493  1.3569
C       -2.7129  0.4052  -0.6423
C       -2.7132  -0.4045  0.6372
C       2.7130  0.4051  -0.6424
C       2.7132  -0.4040  0.6374
H       -1.2778  0.8356  -2.0506
H       -2.7532  1.4599  -0.4346
H       -3.5532  0.1429  -1.2649
H       -3.5532  -0.1519  1.2600
H       -2.7539  -1.4591  0.4194
H       -1.5019  0.6690  1.9348
H       -1.2226  -0.9372  1.9441
H       1.4617  -0.7656  -1.8028
H       1.2780  0.8353  -2.0508
H       3.5532  0.1425  -1.2650
H       2.7533  1.4599  -0.4352
H       2.7542  -1.4588  0.4201
H       3.5531  -0.1510  1.2601
H       1.2226  -0.9364  1.9445
H       1.5016  0.6697  1.9345
H       -1.4618  -0.7653  -1.8032
