27

Co      -0.0736  -0.0640  -0.0633
Cl      0.0101  -2.2528  -0.2078
Cl      0.0097  2.3477  0.2241
N       -1.5651  0.1651  -1.4994
N       -1.5455  -0.1439  1.4390
N       1.4866  0.1601  -1.3055
N       1.7025  -0.1385  1.4661
C       -2.6558  0.3612  -0.5738
C       -2.6560  -0.3690  0.6045
C       2.6656  0.3488  -0.5297
C       2.8130  -0.4005  0.6195
H       -1.3331  1.0523  -1.9572
H       -2.8251  1.3967  -0.3143
H       -3.4634  0.0527  -1.2160
H       -3.4480  -0.0010  1.2426
H       -2.8687  -1.4064  0.3822
H       -1.3318  0.7727  1.8899
H       -1.2970  -0.9261  2.0001
H       1.3116  -0.6670  -1.8930
H       1.2448  1.0373  -1.7734
H       3.3799  0.0817  -1.3094
H       2.8497  1.3802  -0.2389
H       3.0407  -1.4380  0.4099
H       3.6228  -0.0001  1.2250
H       1.5030  -0.8517  2.1257
H       1.5161  0.8250  1.8283
H       -1.4148  -0.6563  -2.0871
