27

Co      0.0000  0.0092  -0.0583
Cl      0.0002  -2.3699  -0.2154
Cl      -0.0001  2.3638  0.2216
N       -1.4923  0.1653  -1.3870
N       -1.5905  -0.1593  1.4421
N       1.4923  0.1652  -1.3869
N       1.5904  -0.1588  1.4422
C       -2.7736  0.3837  -0.6193
C       -2.8474  -0.4137  0.6745
C       2.7737  0.3836  -0.6195
C       2.8474  -0.4132  0.6748
H       -1.3494  0.9607  -1.9841
H       -2.8031  1.4353  -0.3924
H       -3.6168  0.1542  -1.2589
H       -3.7272  -0.0979  1.2284
H       -2.9203  -1.4714  0.4967
H       -1.6438  0.6987  1.9587
H       -1.4050  -0.9060  2.0756
H       1.5459  -0.6594  -1.9580
H       1.3496  0.9604  -1.9843
H       3.6168  0.1539  -1.2591
H       2.8032  1.4353  -0.3930
H       2.9206  -1.4710  0.4973
H       3.7271  -0.0971  1.2285
H       1.4049  -0.9052  2.0760
H       1.6436  0.6994  1.9584
H       -1.5459  -0.6561  -1.9584
