27

Co      0.0000  0.0640  0.0633
Cl      0.0002  -2.3849  -0.2320
Cl      -0.0001  2.2901  0.2159
N       -1.4446  0.1242  -1.2934
N       -1.3465  -0.1456  1.2431
N       1.4446  0.1241  -1.2933
N       1.3464  -0.1451  1.2432
C       -2.7569  0.4241  -0.6627
C       -2.6835  -0.3927  0.6024
C       2.7570  0.4241  -0.6628
C       2.6835  -0.3923  0.6027
H       -1.2623  0.7793  -2.0356
H       -2.8366  1.4819  -0.4795
H       -3.5761  0.1081  -1.2890
H       -3.4657  -0.1723  1.3148
H       -2.7207  -1.4443  0.3601
H       -1.4133  0.6691  1.8272
H       -1.1520  -0.9361  1.8371
H       1.4713  -0.8055  -1.6952
H       1.2625  0.7790  -2.0359
H       3.5761  0.1077  -1.2891
H       2.8367  1.4819  -0.4802
H       2.7210  -1.4440  0.3608
H       3.4656  -0.1715  1.3149
H       1.1519  -0.9353  1.8375
H       1.4131  0.6698  1.8268
H       -1.4714  -0.8083  -1.6956
