27

Co      0.0000  0.0732  0.0050
Cl      0.0002  -2.3214  -0.2264
Cl      -0.0001  2.2204  0.2164
N       -1.3326  0.1264  -1.2633
N       -1.3325  -0.1417  1.2683
N       1.3326  0.1263  -1.2633
N       1.3325  -0.1412  1.2683
C       -2.6757  0.4045  -0.6622
C       -2.6759  -0.4038  0.6572
C       2.6757  0.4045  -0.6624
C       2.6759  -0.4034  0.6574
H       -1.2802  0.7695  -2.0711
H       -2.6142  1.4796  -0.5079
H       -3.6182  0.1630  -1.1533
H       -3.6114  -0.1720  1.1552
H       -2.6149  -1.4789  0.4927
H       -1.6445  0.6465  1.8739
H       -1.2251  -0.8711  1.9646
H       1.6111  -0.7431  -1.7419
H       1.2804  0.7692  -2.0714
H       3.6181  0.1626  -1.1535
H       2.6143  1.4796  -0.5085
H       2.6152  -1.4785  0.4934
H       3.6181  -0.1711  1.1486
H       1.2250  -0.8703  1.9650
H       1.6510  0.6473  1.8736
H       -1.6112  -0.7428  -1.7423
