27

Co      -0.0736  0.0000  0.0000
Cl      0.0101  -2.3002  -0.2159
Cl      0.0097  2.3003  0.2160
N       -1.5276  0.1575  -1.4946
N       -1.5276  -0.1576  1.4945
N       1.5669  0.1525  -1.4111
N       1.5668  -0.1522  1.4111
C       -2.7107  0.4107  -0.6417
C       -2.7110  -0.4100  0.6417
C       2.7942  0.4205  -0.6271
C       2.7943  -0.4194  0.6272
H       -1.0121  0.9575  -1.9679
H       -2.8163  1.4524  -0.3900
H       -3.6189  0.0966  -1.1503
H       -3.6257  -0.0955  1.1437
H       -2.8170  -1.4516  0.3900
H       -1.2252  0.7634  1.9359
H       -1.0125  -0.9580  1.9674
H       1.2628  -0.7934  -1.8076
H       1.0711  0.9130  -1.9387
H       3.6679  0.1109  -1.1848
H       2.9145  1.4622  -0.3661
H       2.9153  -1.4611  0.3662
H       3.6679  -0.1094  1.1849
H       1.0713  -0.9131  1.9384
H       1.2622  0.7935  1.8080
H       -1.2186  -0.7637  -1.9356
