27

Co      -0.1111  0.0092  -0.0583
Cl      0.0101  -2.3591  -0.2154
Cl      0.0097  2.3530  0.2216
N       -1.5108  0.1546  -1.2973
N       -1.4912  -0.1486  1.2420
N       1.4937  0.1701  -1.2537
N       1.7096  -0.1637  1.4193
C       -2.7210  0.3588  -0.5894
C       -2.7212  -0.3667  0.6151
C       2.7308  0.3397  -0.5590
C       2.8782  -0.3913  0.6438
H       -1.3736  0.9323  -1.9249
H       -2.8347  1.4147  -0.4003
H       -3.5710  0.0301  -1.1719
H       -3.5489  0.0114  1.2002
H       -2.8782  -1.4244  0.4531
H       -1.5065  0.6989  1.7768
H       -1.2819  -0.9071  1.8618
H       1.5415  -0.6549  -1.8295
H       1.4083  0.9651  -1.8708
H       3.5558  0.0524  -1.1969
H       2.8387  1.3914  -0.3454
H       3.0298  -1.4492  0.5012
H       3.7987  0.0191  1.1075
H       1.6109  -0.8805  2.1171
H       1.7864  0.7169  1.8962
H       -1.5559  -0.6784  -1.8427
