27

Co      -0.0736  -0.0732  -0.0050
Cl      0.0101  -2.3163  -0.2134
Cl      0.0097  2.4173  0.2236
N       -1.6187  0.1705  -1.4538
N       -1.6187  -0.1555  1.4487
N       1.6579  0.1655  -1.3704
N       1.6579  -0.1501  1.3653
C       -2.6876  0.4220  -0.6077
C       -2.6878  -0.4213  0.6127
C       2.7710  0.4318  -0.5931
C       2.7712  -0.4307  0.5982
H       -0.9750  1.0027  -1.8561
H       -3.0430  1.4679  -0.4358
H       -3.5520  -0.1346  -1.0750
H       -3.5587  0.1458  1.0734
H       -3.0436  -1.4629  0.4510
H       -1.4633  0.7690  1.8707
H       -1.0310  -0.9023  1.9616
H       1.5413  -0.7031  -1.8737
H       1.0341  0.9583  -1.8269
H       3.6010  -0.1203  -1.1095
H       3.1412  1.4735  -0.4119
H       3.1420  -1.4724  0.4271
H       3.6009  0.1320  1.1147
H       1.0898  -0.8574  1.9326
H       1.5004  0.7991  1.7428
H       -1.4972  -0.6734  -2.0016
