27

Co      0.0000  0.0000  0.0000
Cl      0.0002  -2.2817  -0.2214
Cl      -0.0001  2.2817  0.2215
N       -1.3920  0.1344  -1.3723
N       -1.3920  -0.1345  1.3722
N       1.3920  0.1343  -1.3723
N       1.3919  -0.1340  1.3723
C       -2.6617  0.4077  -0.6398
C       -2.6619  -0.4070  0.6397
C       2.6618  0.4077  -0.6399
C       2.6619  -0.4066  0.6400
H       -1.2141  0.8759  -2.0181
H       -2.6841  1.4624  -0.4193
H       -3.5148  0.1684  -1.2470
H       -3.5148  -0.1674  1.2471
H       -2.6847  -1.4617  0.4193
H       -1.4535  0.7272  1.8820
H       -1.2146  -0.8764  2.0176
H       1.4538  -0.7279  -1.8813
H       1.2143  0.8756  -2.0183
H       3.5148  0.1681  -1.2471
H       2.6842  1.4625  -0.4199
H       2.6850  -1.4614  0.4200
H       3.5147  -0.1665  1.2473
H       1.2145  -0.8756  2.0180
H       1.4533  0.7280  1.8817
H       -1.4538  -0.7276  -1.8817
