27

Co      0.0000  0.0000  0.0000
Cl      0.0002  -2.3002  -0.2159
Cl      -0.0001  2.3003  0.2160
N       -1.5645  0.1546  -1.4878
N       -1.4466  -0.1547  1.3772
N       1.4467  0.1545  -1.3772
N       1.5644  -0.1542  1.4877
C       -2.7960  0.4126  -0.6617
C       -2.7226  -0.3898  0.6322
C       2.7224  0.3905  -0.6323
C       2.7962  -0.4115  0.6619
H       -1.4148  0.9081  -2.1279
H       -2.8290  1.4673  -0.4626
H       -3.6999  0.1398  -1.1988
H       -3.5673  -0.1534  1.2578
H       -2.7561  -1.4445  0.4111
H       -1.4930  0.6764  1.9384
H       -1.2679  -0.9381  1.9728
H       1.4932  -0.6770  -1.9376
H       1.2677  0.9373  -1.9735
H       3.5673  0.1541  -1.2578
H       2.7555  1.4453  -0.4117
H       2.8300  -1.4662  0.4633
H       3.6998  -0.1378  1.1990
H       1.4151  -0.9079  2.1278
H       1.6400  0.6992  2.0043
H       -1.6405  -0.6989  -2.0043
