27

Co      -0.1111  -0.0640  -0.0633
Cl      0.0101  -2.3086  -0.2104
Cl      0.0097  2.4035  0.2267
N       -1.4686  0.1579  -1.3252
N       -1.4489  -0.1368  1.2648
N       1.4515  0.1734  -1.2815
N       1.6674  -0.1519  1.4422
C       -2.7759  0.3968  -0.6249
C       -2.7761  -0.4047  0.6557
C       2.7857  0.3777  -0.5945
C       2.9331  -0.4293  0.6843
H       -1.2613  0.9659  -1.8972
H       -2.8262  1.4485  -0.4054
H       -3.5921  0.1408  -1.2834
H       -3.5700  -0.0891  1.3168
H       -2.8698  -1.4625  0.4733
H       -1.4441  0.7595  1.7238
H       -1.2252  -0.8397  1.9402
H       1.5195  -0.6196  -1.9078
H       1.2960  0.9987  -1.8431
H       3.5769  0.1630  -1.3085
H       2.8303  1.4294  -0.3505
H       3.0213  -1.4872  0.5215
H       3.8198  -0.0814  1.2241
H       1.5542  -0.8131  2.1955
H       1.7240  0.7776  1.8432
H       -1.5339  -0.6431  -1.9211
