27

Co      -0.0376  0.0092  -0.0583
Cl      0.0002  -2.3033  -0.2128
Cl      -0.0001  2.2972  0.2191
N       -1.4847  0.1474  -1.3850
N       -1.4650  -0.1414  1.3297
N       1.4283  0.1678  -1.4247
N       1.6442  -0.1614  1.5904
C       -2.7592  0.4007  -0.6272
C       -2.7594  -0.4086  0.6530
C       2.6856  0.3717  -0.6116
C       2.8330  -0.4234  0.6963
H       -1.3257  0.9118  -2.0170
H       -2.7810  1.4523  -0.4002
H       -3.6105  0.1708  -1.2482
H       -3.5884  -0.1292  1.2766
H       -2.8246  -1.4663  0.4530
H       -1.4976  0.7149  1.8462
H       -1.2341  -0.8866  1.9539
H       1.4885  -0.6416  -2.0264
H       1.3016  0.9888  -1.9924
H       3.5462  0.1783  -1.2390
H       2.6870  1.4234  -0.3698
H       2.8780  -1.4812  0.5257
H       3.7892  -0.1068  1.1496
H       1.5042  -0.9042  2.2387
H       1.7334  0.7036  2.0931
H       -1.5470  -0.6945  -1.9121
