27

Co      0.0000  0.0000  0.0000
Cl      0.0002  -2.2121  -0.2133
Cl      -0.0001  2.2122  0.2134
N       -1.3629  0.1283  -1.3035
N       -1.3629  -0.1284  1.3034
N       1.3629  0.1282  -1.3035
N       1.3628  -0.1279  1.3035
C       -2.7772  0.4493  -0.6706
C       -2.7775  -0.4486  0.6706
C       2.7773  0.4493  -0.6707
C       2.7775  -0.4482  0.6708
H       -1.1347  0.8383  -1.9744
H       -2.7649  1.4998  -0.4275
H       -3.5517  0.2589  -1.4059
H       -3.5517  -0.2578  1.4060
H       -2.7655  -1.5033  0.4275
H       -1.4172  0.7534  1.7817
H       -1.1351  -0.8388  1.9739
H       1.4175  -0.7541  -1.7809
H       1.1349  0.8380  -1.9746
H       3.5517  0.2585  -1.4060
H       2.7650  1.5041  -0.4281
H       2.7658  -1.5030  0.4281
H       3.5516  -0.2569  1.4061
H       1.1350  -0.8380  1.9743
H       1.4170  0.7541  1.7813
H       -1.4175  -0.7538  -1.7813
