27

Co      0.1111  0.0732  0.0050
Cl      -0.0096  -2.3236  -0.2097
Cl      -0.0099  2.2226  0.1997
N       -1.4215  0.1849  -1.2765
N       -1.4215  -0.2002  1.2814
N       1.3209  0.1636  -1.2095
N       1.3208  -0.1785  1.2146
C       -2.8276  0.3568  -0.6753
C       -2.8279  -0.3561  0.6702
C       2.7443  0.3538  -0.6764
C       2.7445  -0.3527  0.6715
H       -1.6508  0.9110  -2.0617
H       -2.9093  1.4302  -0.5827
H       -3.5897  0.0287  -1.3816
H       -3.5829  -0.0377  1.3834
H       -2.9099  -1.4295  0.5675
H       -1.8262  0.5052  2.0283
H       -1.5957  -1.0125  1.9552
H       1.6656  -0.6065  -1.8372
H       1.4692  0.9014  -1.9673
H       3.4724  0.0260  -1.4157
H       2.8262  1.4329  -0.5817
H       2.8270  -1.4318  0.5666
H       3.4723  -0.0346  1.4108
H       1.4138  -1.0024  1.8609
H       1.7054  0.5107  1.9689
H       -1.7929  -0.6016  -1.8967
