27

Co      -0.0376  0.0000  0.0000
Cl      0.0002  -2.2972  -0.2105
Cl      -0.0001  2.2973  0.2106
N       -1.5509  0.1434  -1.2657
N       -1.5509  -0.1435  1.2656
N       1.6124  0.1638  -1.4159
N       1.6124  -0.1635  1.4159
C       -2.8642  0.4128  -0.6058
C       -2.8645  -0.4121  0.6058
C       2.8643  0.4059  -0.6196
C       2.8645  -0.4048  0.6197
H       -1.2392  0.9156  -1.8352
H       -3.0558  1.4472  -0.3416
H       -3.5180  0.1081  -1.4582
H       -3.5248  -0.1070  1.4515
H       -3.0565  -1.4464  0.3416
H       -1.3461  0.7621  1.7196
H       -1.2396  -0.9162  1.8347
H       1.4283  -0.7285  -1.8998
H       1.3623  0.9631  -1.9651
H       3.5863  0.1009  -1.3900
H       3.0354  1.4404  -0.3627
H       3.0363  -1.4393  0.3628
H       3.5862  -0.0993  1.3902
H       1.3624  -0.9632  1.9648
H       1.4278  0.7286  1.9002
H       -1.3395  -0.7624  -1.7193
