27

Co      0.0000  0.0000  0.0000
Cl      0.0002  -2.2709  -0.2214
Cl      -0.0001  2.2709  0.2215
N       -1.3008  0.1272  -1.2310
N       -1.4186  -0.1273  1.3413
N       1.4186  0.1271  -1.3414
N       1.3007  -0.1268  1.2309
C       -2.6321  0.4003  -0.6179
C       -2.7059  -0.4217  0.6473
C       2.7058  0.4223  -0.6474
C       2.6323  -0.3991  0.6181
H       -1.0974  0.8619  -1.8798
H       -2.6724  1.4550  -0.3864
H       -3.4162  0.1686  -1.3159
H       -3.5488  -0.1528  1.2571
H       -2.7467  -1.4763  0.4379
H       -1.4877  0.7598  1.8075
H       -1.2451  -0.8330  2.0339
H       1.4879  -0.7604  -1.8068
H       1.2449  0.8321  -2.0346
H       3.5488  0.1535  -1.2571
H       2.7461  1.4771  -0.4385
H       2.6733  -1.4539  0.3870
H       3.4162  -0.1667  1.3162
H       1.0978  -0.8617  1.8797
H       1.3401  0.7384  1.7409
H       -1.3407  -0.7381  -1.7409
