27

Co      0.0000  0.0000  0.0000
Cl      0.0002  -2.2307  -0.2079
Cl      -0.0001  2.2307  0.2080
N       -1.5609  0.1570  -1.3130
N       -1.5609  -0.1571  1.3129
N       1.5609  0.1569  -1.3130
N       1.5609  -0.1566  1.3130
C       -2.7649  0.3672  -0.6017
C       -2.7651  -0.3664  0.6017
C       2.7650  0.3671  -0.6019
C       2.7651  -0.3660  0.6020
H       -1.4307  0.9190  -1.9562
H       -2.8899  1.4261  -0.4197
H       -3.6283  0.0263  -1.1590
H       -3.6283  -0.0252  1.1591
H       -2.8906  -1.4211  0.4197
H       -1.6148  0.6883  1.8458
H       -1.4311  -0.9196  1.9557
H       1.6150  -0.6889  -1.8451
H       1.4309  0.9187  -1.9564
H       3.6283  0.0259  -1.1591
H       2.8900  1.4219  -0.4203
H       2.8909  -1.4208  0.4203
H       3.6282  -0.0244  1.1593
H       1.4310  -0.9188  1.9561
H       1.6145  0.6890  1.8455
H       -1.6150  -0.6887  -1.8455
