27

Co      0.0000  0.0000  0.0000
Cl      0.0002  -2.2229  -0.2133
Cl      -0.0001  2.2229  0.2134
N       -1.4374  0.1397  -1.3643
N       -1.4374  -0.1398  1.3642
N       1.4374  0.1396  -1.3643
N       1.4374  -0.1393  1.3643
C       -2.7152  0.4077  -0.6398
C       -2.7154  -0.4070  0.6397
C       2.7152  0.4077  -0.6399
C       2.7154  -0.4066  0.6400
H       -1.2622  0.8839  -2.0101
H       -2.7482  1.4624  -0.4220
H       -3.5629  0.1604  -1.2523
H       -3.5629  -0.1593  1.2525
H       -2.7489  -1.4617  0.4220
H       -1.4990  0.7192  1.8766
H       -1.2627  -0.8844  2.0096
H       1.4992  -0.7198  -1.8759
H       1.2624  0.8836  -2.0103
H       3.5629  0.1600  -1.2525
H       2.7483  1.4625  -0.4226
H       2.7491  -1.4614  0.4226
H       3.5628  -0.1585  1.2526
H       1.2626  -0.8837  2.0100
H       1.4987  0.7199  1.8763
H       -1.4992  -0.7196  -1.8763
