27

Co      0.0000  0.0732  0.0050
Cl      0.0002  -2.3292  -0.2210
Cl      -0.0001  2.2282  0.2110
N       -1.3520  0.1881  -1.2760
N       -1.3520  -0.2034  1.2810
N       1.3520  0.1881  -1.2760
N       1.3520  -0.2029  1.2810
C       -2.8480  0.4014  -0.7004
C       -2.8483  -0.4007  0.6954
C       2.8481  0.4014  -0.7005
C       2.8483  -0.4003  0.6956
H       -1.4890  0.7037  -2.2801
H       -2.6564  1.4722  -0.4925
H       -3.7835  0.2905  -1.2688
H       -3.7767  -0.2995  1.2707
H       -2.6570  -1.4757  0.4774
H       -1.4547  0.7401  1.6500
H       -1.4339  -0.8053  2.1736
H       1.4213  -0.8366  -1.5179
H       1.4892  0.7034  -2.2737
H       3.7835  0.2968  -1.2689
H       2.6565  1.4765  -0.4931
H       2.6573  -1.4754  0.4780
H       3.7834  -0.3053  1.2640
H       1.4271  -0.8045  2.1673
H       1.4612  0.7408  1.6496
H       -1.4213  -0.8364  -1.5183
