27

Co      0.1111  -0.0092  0.0583
Cl      -0.0096  -2.2198  -0.2164
Cl      -0.0099  2.2260  0.2104
N       -1.4713  0.1909  -1.3834
N       -1.4909  -0.1972  1.4386
N       1.4884  0.1752  -1.4269
N       1.2724  -0.1811  1.2613
C       -2.7502  0.4268  -0.6588
C       -2.7504  -0.4175  0.6330
C       2.7405  0.4459  -0.6894
C       2.5934  -0.3920  0.6048
H       -1.3867  0.7733  -2.2281
H       -2.8748  1.4846  -0.4662
H       -3.5840  0.0844  -1.2561
H       -3.6061  -0.1238  1.2280
H       -2.8326  -1.4691  0.4135
H       -1.5568  0.7861  1.7457
H       -1.4792  -0.7996  2.2902
H       1.5223  -0.8313  -1.6915
H       1.3525  0.7398  -2.2760
H       3.5991  0.0680  -1.2313
H       2.8710  1.5037  -0.5225
H       2.6816  -1.4437  0.3667
H       3.3561  -0.1364  1.3210
H       1.1435  -0.8246  2.0290
H       1.2763  0.7695  1.6256
H       -1.5079  -0.8073  -1.6791
