27

Co      0.0000  -0.0732  -0.0050
Cl      0.0002  -2.3219  -0.2247
Cl      -0.0001  2.4230  0.2349
N       -1.6389  0.1223  -1.4065
N       -1.6389  -0.1073  1.4014
N       1.6389  0.1278  -1.4064
N       1.6388  -0.1124  1.4014
C       -2.7431  0.4071  -0.5512
C       -2.7433  -0.4064  0.5562
C       2.7432  0.4071  -0.5513
C       2.7433  -0.4060  0.5564
H       -1.3748  0.9208  -1.9581
H       -2.8636  1.4401  -0.2406
H       -3.5434  0.1654  -1.2345
H       -3.5501  -0.1542  1.2330
H       -2.8642  -1.4351  0.2557
H       -1.4740  0.8511  1.7678
H       -1.4308  -0.8204  2.0637
H       1.5022  -0.7558  -1.9040
H       1.3750  0.9261  -1.9527
H       3.5433  0.1594  -1.2347
H       2.8693  1.4303  -0.2468
H       2.8702  -1.4292  0.2620
H       3.5433  -0.1477  1.2399
H       1.4307  -0.8252  2.0585
H       1.4613  0.8518  1.7731
H       -1.5079  -0.7555  -1.8988
