27

Co      0.0000  0.0000  0.0000
Cl      0.0002  -2.2307  -0.2079
Cl      -0.0001  2.2307  0.2080
N       -1.5951  0.1113  -1.2998
N       -1.5951  -0.1114  1.2997
N       1.5951  0.1112  -1.2997
N       1.5950  -0.1109  1.2997
C       -2.7521  0.4130  -0.6161
C       -2.7523  -0.4123  0.6161
C       2.7522  0.4130  -0.6163
C       2.7523  -0.4119  0.6163
H       -1.0031  0.9717  -1.7077
H       -2.9508  1.4792  -0.4872
H       -3.7161  -0.0605  -0.9819
H       -3.7161  0.0616  0.9820
H       -2.9514  -1.4743  0.4872
H       -1.7268  0.6256  1.9988
H       -1.0036  -0.9722  1.7072
H       1.7271  -0.6262  -1.9981
H       1.0033  0.9714  -1.7146
H       3.7160  -0.0675  -0.9820
H       2.9509  1.4750  -0.4878
H       2.9517  -1.4739  0.4878
H       3.7160  0.0691  0.9821
H       1.0101  -0.9714  1.7142
H       1.7266  0.6263  1.9985
H       -1.7271  -0.6259  -1.9985
