27

Co      0.0736  0.0640  0.0633
Cl      -0.0096  -2.3261  -0.2240
Cl      -0.0099  2.2313  0.2079
N       -1.4106  0.1404  -1.1681
N       -1.4303  -0.1618  1.2283
N       1.4893  0.1452  -1.3619
N       1.2732  -0.1662  1.2012
C       -2.8414  0.3593  -0.6613
C       -2.8417  -0.3500  0.6305
C       2.8318  0.3716  -0.7056
C       2.6847  -0.3177  0.6159
H       -1.4772  0.7853  -2.0096
H       -2.6689  1.4374  -0.4740
H       -3.8024  0.2318  -1.1794
H       -3.8177  -0.2813  1.1530
H       -2.6267  -1.4220  0.4061
H       -1.5768  0.6520  1.7992
H       -1.5142  -0.9125  1.9657
H       1.5974  -0.7590  -1.7947
H       1.5658  0.7996  -2.1939
H       3.8859  0.2020  -1.0863
H       2.6446  1.4497  -0.5507
H       2.4552  -1.3897  0.3798
H       3.6428  -0.2804  1.1710
H       1.3079  -0.9854  1.8408
H       1.3919  0.6012  1.8601
H       -1.4943  -0.7692  -1.6013
