27

Co      0.0000  -0.0640  -0.0633
Cl      0.0002  -2.2420  -0.2078
Cl      -0.0001  2.3369  0.2241
N       -1.5248  0.1585  -1.3969
N       -1.5051  -0.1374  1.3365
N       1.4070  0.1584  -1.2864
N       1.6229  -0.1369  1.4470
C       -2.7596  0.4149  -0.6118
C       -2.7598  -0.4228  0.6426
C       2.6860  0.3928  -0.5825
C       2.8334  -0.4445  0.6722
H       -1.0167  0.9701  -1.8705
H       -2.8690  1.4535  -0.3366
H       -3.6222  0.1221  -1.1903
H       -3.6068  -0.0704  1.2169
H       -2.9126  -1.4675  0.4045
H       -1.1630  0.8580  1.6657
H       -0.9806  -0.8439  1.9134
H       1.0987  -0.7228  -1.7963
H       0.8696  0.9992  -1.7160
H       3.4896  0.1364  -1.2493
H       2.7955  1.4314  -0.2857
H       2.9865  -1.4892  0.4567
H       3.7326  -0.0548  1.1650
H       1.1278  -0.8136  2.0684
H       1.3032  0.8808  1.7316
H       -1.2460  -0.7416  -1.8629
