27

Co      0.1111  0.0000  0.0000
Cl      -0.0096  -2.2787  -0.2159
Cl      -0.0099  2.2787  0.2160
N       -1.4074  0.1433  -1.2987
N       -1.4074  -0.1434  1.2986
N       1.3067  0.1276  -1.2318
N       1.3067  -0.1273  1.2318
C       -2.8769  0.4342  -0.6827
C       -2.8772  -0.4335  0.6826
C       2.7936  0.4312  -0.6838
C       2.7938  -0.4301  0.6839
H       -1.5610  0.8378  -2.1015
H       -2.7997  1.4978  -0.4922
H       -3.6390  0.2855  -1.4650
H       -3.6322  -0.2844  1.4719
H       -2.8003  -1.5013  0.4922
H       -1.8312  0.6502  1.8967
H       -1.5615  -0.8383  2.1010
H       1.7053  -0.6555  -1.8425
H       1.3795  0.8338  -2.0014
H       3.5216  0.2772  -1.4991
H       2.7222  1.4990  -0.4969
H       2.7230  -1.4979  0.4969
H       3.5216  -0.2756  1.4992
H       1.3796  -0.8339  2.0011
H       1.7048  0.6556  1.8429
H       -1.8383  -0.6506  -1.8964
