27

Co      0.0376  0.0640  0.0633
Cl      0.0002  -2.3369  -0.2240
Cl      -0.0001  2.2421  0.2079
N       -1.4052  0.2025  -1.4096
N       -1.4248  -0.2239  1.4698
N       1.4616  0.1819  -1.3698
N       1.2455  -0.2029  1.2092
C       -2.8409  0.3987  -0.7273
C       -2.8411  -0.3894  0.6965
C       2.9146  0.4276  -0.7432
C       2.7675  -0.3737  0.6536
H       -1.5475  0.7434  -2.3747
H       -2.6425  1.4726  -0.5363
H       -3.8389  0.2741  -1.2093
H       -3.8542  -0.3235  1.1829
H       -2.6002  -1.4614  0.4684
H       -1.5631  0.6910  1.8829
H       -1.5844  -0.8707  2.3308
H       1.5391  -0.8616  -1.5700
H       1.5720  0.6659  -2.3932
H       3.9031  0.2724  -1.2188
H       2.7367  1.5058  -0.5680
H       2.5473  -1.4458  0.3970
H       3.6601  -0.3509  1.3035
H       1.3075  -0.8516  2.0401
H       1.3336  0.7038  1.6354
H       -1.4806  -0.8082  -1.6851
