27

Co      -0.0376  -0.0640  -0.0633
Cl      0.0002  -2.1832  -0.1998
Cl      -0.0001  2.2782  0.2161
N       -1.5395  0.1536  -1.3138
N       -1.5198  -0.1325  1.2534
N       1.4831  0.1740  -1.3535
N       1.6990  -0.1525  1.5141
C       -2.8130  0.4184  -0.6050
C       -2.8132  -0.4262  0.6357
C       2.7395  0.3894  -0.5893
C       2.8869  -0.4411  0.6791
H       -1.0034  0.9542  -1.7976
H       -2.9434  1.4569  -0.3291
H       -3.6362  0.1175  -1.2298
H       -3.6208  -0.0658  1.2564
H       -2.9870  -1.4709  0.3970
H       -1.1640  0.8671  1.5681
H       -0.9673  -0.8280  1.8405
H       1.1885  -0.6977  -1.8797
H       0.9792  1.0312  -1.7729
H       3.5719  0.1250  -1.2205
H       2.8494  1.4280  -0.2986
H       3.0404  -1.4858  0.4697
H       3.8148  -0.0434  1.1362
H       1.2374  -0.8456  2.1253
H       1.3930  0.8557  1.8150
H       -1.2470  -0.7506  -1.7654
