27

Co      -0.0736  0.0000  0.0000
Cl      0.0101  -2.3616  -0.2297
Cl      0.0097  2.3617  0.2298
N       -1.5744  0.1241  -1.3392
N       -1.5744  -0.1242  1.3391
N       1.6136  0.1247  -1.2558
N       1.6136  -0.1244  1.2558
C       -2.7154  0.4063  -0.5956
C       -2.7156  -0.4056  0.5955
C       2.7988  0.4161  -0.5810
C       2.7990  -0.4150  0.5810
H       -1.1932  0.8220  -1.9895
H       -2.7229  1.4669  -0.3705
H       -3.7677  0.1163  -0.9273
H       -3.7676  -0.1152  0.9275
H       -2.7235  -1.4619  0.3705
H       -1.5338  0.7920  1.7580
H       -1.1937  -0.8225  1.9891
H       1.5725  -0.8221  -1.6354
H       1.2523  0.7832  -1.9547
H       3.8167  0.1250  -0.9618
H       2.8267  1.4669  -0.3522
H       2.8275  -1.4658  0.3522
H       3.8166  -0.1234  0.9619
H       1.2524  -0.7833  1.9544
H       1.5720  0.8222  1.6357
H       -1.5341  -0.7924  -1.7576
