27

Co      0.0000  0.0000  0.0000
Cl      0.0002  -2.2894  -0.2159
Cl      -0.0001  2.2895  0.2160
N       -1.4537  0.2003  -1.3597
N       -1.4536  -0.2005  1.3596
N       1.4537  0.2003  -1.3596
N       1.4536  -0.2000  1.3596
C       -2.7792  0.3666  -0.6399
C       -2.7794  -0.3659  0.6399
C       2.7792  0.3666  -0.6400
C       2.7794  -0.3655  0.6401
H       -1.5074  0.8270  -2.2017
H       -2.7347  1.4213  -0.3912
H       -3.6590  0.1904  -1.2484
H       -3.6590  -0.1893  1.2485
H       -2.7353  -1.4206  0.3913
H       -1.3060  0.8081  1.6454
H       -1.5078  -0.8275  2.2012
H       1.3062  -0.8087  -1.6447
H       1.5076  0.8267  -2.1953
H       3.6590  0.1966  -1.2485
H       2.7348  1.4213  -0.3919
H       2.7356  -1.4202  0.3919
H       3.6589  -0.1951  1.2487
H       1.5011  -0.8267  2.1950
H       1.3057  0.8088  1.6451
H       -1.3062  -0.8085  -1.6451
