27

Co      -0.1111  0.0092  -0.0583
Cl      0.0101  -2.2981  -0.2241
Cl      0.0097  2.2921  0.2303
N       -1.5221  0.0452  -1.3420
N       -1.5025  -0.0392  1.2867
N       1.5050  0.0664  -1.2984
N       1.7209  -0.0599  1.4641
C       -2.6995  0.4914  -0.5866
C       -2.6997  -0.4992  0.6123
C       2.7093  0.4722  -0.5562
C       2.8567  -0.5239  0.6409
H       -0.7668  0.8781  -1.7286
H       -2.8117  1.5243  -0.2891
H       -3.5340  0.2088  -1.2010
H       -3.5186  -0.1672  1.2226
H       -2.8553  -1.5383  0.3419
H       -1.4053  0.7976  1.8427
H       -0.6752  -0.8529  1.6655
H       1.4279  -0.7536  -1.9010
H       0.8015  0.9166  -1.6756
H       3.5187  0.2188  -1.2261
H       2.8214  1.4996  -0.2398
H       3.0124  -1.5574  0.3956
H       3.7616  -0.1472  1.1366
H       1.0108  -0.8320  1.9219
H       1.6728  0.8157  1.9677
H       -1.4479  -0.7771  -1.9086
