27

Co      0.0000  0.0640  0.0633
Cl      0.0002  -2.3127  -0.2182
Cl      -0.0001  2.2179  0.2021
N       -1.3194  0.2140  -1.3098
N       -1.2212  -0.2354  1.2596
N       1.3194  0.2083  -1.3098
N       1.2212  -0.2293  1.2596
C       -2.7309  0.3347  -0.7036
C       -2.6575  -0.3033  0.6433
C       2.7310  0.3346  -0.7037
C       2.6575  -0.3029  0.6435
H       -1.7129  0.7961  -2.2982
H       -2.7128  1.4111  -0.5881
H       -3.5575  0.0761  -1.3432
H       -3.4403  -0.1403  1.3758
H       -2.5969  -1.3736  0.4686
H       -1.4159  0.6035  1.7996
H       -1.6026  -0.9528  2.0997
H       1.4863  -0.7399  -1.6620
H       1.7131  0.7902  -2.2974
H       3.5575  0.0879  -1.3434
H       2.7073  1.4168  -0.5831
H       2.5916  -1.3789  0.4637
H       3.4470  -0.1517  1.3691
H       1.5958  -0.9464  2.0990
H       1.4281  0.6042  1.7936
H       -1.4807  -0.7428  -1.6680
