27

Co      -0.0736  -0.0732  -0.0050
Cl      0.0101  -2.2497  -0.2109
Cl      0.0097  2.3508  0.2211
N       -1.5553  0.1620  -1.4717
N       -1.5553  -0.1470  1.4666
N       1.5946  0.1571  -1.3883
N       1.5945  -0.1416  1.3833
C       -2.6558  0.3654  -0.5866
C       -2.6560  -0.3647  0.5917
C       2.7392  0.3752  -0.5720
C       2.7394  -0.3741  0.5772
H       -1.2870  1.0394  -1.9259
H       -2.8466  1.4040  -0.3407
H       -3.4523  0.0324  -1.2301
H       -3.4591  -0.0212  1.2285
H       -2.8472  -1.3991  0.3558
H       -1.3563  0.7623  1.9230
H       -1.3430  -0.9390  2.0315
H       1.4343  -0.6964  -1.9261
H       1.3461  0.9950  -1.8967
H       3.5013  0.0468  -1.2646
H       2.9448  1.4096  -0.3168
H       2.9456  -1.4085  0.3320
H       3.5013  -0.0351  1.2698
H       1.4018  -0.8941  2.0024
H       1.3934  0.7924  1.7952
H       -1.3902  -0.6667  -2.0540
