27

Co      0.0000  0.0000  0.0000
Cl      0.0002  -2.3724  -0.2297
Cl      -0.0001  2.3725  0.2298
N       -1.5966  0.1105  -1.4293
N       -1.5966  -0.1106  1.4292
N       1.5967  0.1160  -1.4293
N       1.5966  -0.1158  1.4293
C       -2.7980  0.4451  -0.5917
C       -2.7982  -0.4444  0.5917
C       2.7981  0.4451  -0.5918
C       2.7982  -0.4440  0.5919
H       -1.3181  0.8534  -2.0365
H       -2.8551  1.4739  -0.2608
H       -3.5645  0.2660  -1.3511
H       -3.5712  -0.2649  1.3445
H       -2.8558  -1.4732  0.2608
H       -1.4520  0.8158  1.8461
H       -1.3185  -0.8540  2.0360
H       1.4398  -0.8164  -1.8510
H       1.3183  0.8587  -2.0311
H       3.5645  0.2600  -1.3513
H       2.8609  1.4683  -0.2671
H       2.8617  -1.4672  0.2671
H       3.5644  -0.2584  1.3514
H       1.3184  -0.8588  2.0308
H       1.4393  0.8165  1.8514
H       -1.4454  -0.8161  -1.8458
