27

Co      0.0000  0.0640  0.0633
Cl      0.0002  -2.3261  -0.2240
Cl      -0.0001  2.2313  0.2079
N       -1.4207  0.1321  -1.2903
N       -1.3225  -0.1535  1.2401
N       1.4207  0.1320  -1.2903
N       1.3225  -0.1530  1.2401
C       -2.8720  0.4553  -0.7279
C       -2.7987  -0.4240  0.6676
C       2.8721  0.4553  -0.7280
C       2.7987  -0.4235  0.6678
H       -1.3073  0.7433  -2.1140
H       -2.7973  1.5292  -0.5830
H       -3.7810  0.2125  -1.2728
H       -3.6638  -0.2767  1.3053
H       -2.6814  -1.4959  0.4636
H       -1.6268  0.6195  1.8684
H       -1.1970  -0.9000  1.9155
H       1.6916  -0.7559  -1.7364
H       1.3075  0.7430  -2.1142
H       3.7810  0.2121  -1.2729
H       2.7974  1.5335  -0.5837
H       2.6817  -1.4956  0.4643
H       3.6705  -0.2759  1.2987
H       1.1969  -0.8993  1.9158
H       1.6333  0.6202  1.8681
H       -1.6916  -0.7587  -1.7368
