27

Co      0.0000  0.0732  0.0050
Cl      0.0002  -2.3880  -0.2290
Cl      -0.0001  2.2870  0.2190
N       -1.3533  0.1231  -1.2911
N       -1.3533  -0.1383  1.2961
N       1.3533  0.1230  -1.2910
N       1.3533  -0.1378  1.2961
C       -2.7750  0.4468  -0.6731
C       -2.7753  -0.4461  0.6681
C       2.7751  0.4467  -0.6733
C       2.7752  -0.4456  0.6683
H       -1.1502  0.7900  -2.0150
H       -2.7699  1.4973  -0.4401
H       -3.5421  0.2413  -1.4184
H       -3.5420  -0.2503  1.4135
H       -2.7705  -1.5008  0.4249
H       -1.4202  0.7032  1.8398
H       -1.0951  -0.8916  1.9084
H       1.3800  -0.7998  -1.7078
H       1.1504  0.7897  -2.0152
H       3.5420  0.2410  -1.4185
H       2.7700  1.5015  -0.4407
H       2.7708  -1.5004  0.4256
H       3.5420  -0.2495  1.4136
H       1.0950  -0.8908  1.9088
H       1.4199  0.7039  1.8395
H       -1.3800  -0.7995  -1.7082
