27

Co      -0.0697  -0.0222  -0.0177
Cl      -1.0802  1.6088  -1.2059
Cl      1.2132  1.5188  1.4319
C       2.8075  -0.6905  -0.8095
C       2.1662  -2.0327  -0.1181
C       -2.5867  -1.3504  -0.4791
C       -2.4625  -1.2046  1.0725
N       1.5010  0.0397  -1.4037
N       1.0390  -1.4416  0.8236
N       -1.1323  -1.2350  -0.9191
N       -1.4365  -0.0686  1.2754
H       2.8033  -2.7582  0.4389
H       1.6337  -2.5765  -0.9158
H       -3.0939  -0.4772  -0.8713
H       -3.0535  -2.2462  -0.8817
H       1.6428  1.0366  -1.5067
H       1.2966  -0.3194  -2.3207
H       -1.8932  0.8288  1.2129
H       -1.0230  -0.0860  2.1943
H       -2.0827  -2.0992  1.5519
H       -3.3877  -0.9372  1.5629
H       0.5070  -2.1706  1.2783
H       1.5052  -0.9264  1.5592
H       3.5131  -0.8821  -1.6094
H       3.2557  -0.0051  -0.0961
H       -0.6777  -2.1395  -0.8323
H       -1.0992  -0.9825  -1.8899
