27

Co      0.0521  0.0567  0.0336
Cl      -1.0950  1.6038  -1.2133
Cl      1.0961  1.3428  1.2832
C       2.6499  -0.7057  -0.8290
C       2.1301  -1.9265  -0.0881
C       -2.5426  -1.2775  -0.4518
C       -2.3944  -1.1737  1.0482
N       1.4941  0.0934  -1.3048
N       1.0778  -1.5018  0.8795
N       -1.1435  -1.3450  -0.9943
N       -1.4882  -0.0282  1.3244
H       2.9313  -2.4392  0.4101
H       1.6795  -2.6262  -0.7818
H       -3.0118  -0.3994  -0.8571
H       -3.1127  -2.1439  -0.7420
H       1.7445  1.0574  -1.4365
H       1.1619  -0.2336  -2.1943
H       -1.9738  0.8431  1.1860
H       -1.1742  -0.0204  2.2733
H       -1.9378  -2.0744  1.4499
H       -3.3511  -1.0463  1.5416
H       0.5048  -2.2910  1.1313
H       1.5001  -1.1590  1.7246
H       3.2809  -1.0048  -1.6543
H       3.2316  -0.0845  -0.1686
H       -0.8064  -2.2842  -0.9321
H       -1.1574  -1.0865  -1.9646
