27

Co      -0.0640  0.0108  -0.0070
Cl      -1.0903  1.6208  -1.2111
Cl      1.1772  1.4545  1.3820
C       2.7025  -0.7121  -0.7979
C       2.1432  -1.9513  -0.1288
C       -2.5361  -1.2895  -0.4571
C       -2.3934  -1.1708  1.0425
N       1.5392  0.0399  -1.3656
N       1.1245  -1.5287  0.8873
N       -1.1329  -1.3075  -0.9706
N       -1.4648  -0.0433  1.3037
H       2.9291  -2.5447  0.3283
H       1.6507  -2.5811  -0.8606
H       -3.0382  -0.4335  -0.8796
H       -3.0618  -2.1814  -0.7518
H       1.7550  1.0193  -1.4482
H       1.3123  -0.2782  -2.2871
H       -1.9402  0.8425  1.2487
H       -1.0692  -0.0839  2.2243
H       -1.9458  -2.0732  1.4487
H       -3.3402  -1.0246  1.5400
H       0.6747  -2.3357  1.2853
H       1.5874  -1.0529  1.6442
H       3.4211  -0.9764  -1.5623
H       3.1909  -0.0735  -0.0795
H       -0.7405  -2.2331  -0.8503
H       -1.1279  -1.0988  -1.9545
