27

Co      0.0488  0.0292  0.0175
Cl      -1.0873  1.5943  -1.2105
Cl      1.1345  1.4095  1.3380
C       2.6845  -0.7036  -0.8570
C       2.1196  -1.9208  -0.0801
C       -2.5530  -1.3207  -0.4524
C       -2.4605  -1.1816  1.0750
N       1.5078  0.0772  -1.3326
N       1.0123  -1.4540  0.8211
N       -1.1440  -1.2949  -0.9844
N       -1.4998  -0.0644  1.3339
H       2.9777  -2.4390  0.3372
H       1.6063  -2.6035  -0.7440
H       -2.9879  -0.4623  -0.9484
H       -3.1660  -2.1976  -0.6338
H       1.8142  1.0266  -1.5484
H       1.3918  -0.3145  -2.2684
H       -2.0354  0.7875  1.2392
H       -1.2658  -0.0804  2.3180
H       -2.0324  -2.0486  1.5692
H       -3.4610  -1.0464  1.4685
H       0.4926  -2.2642  1.1170
H       1.5590  -1.2236  1.6601
H       3.4256  -1.1338  -1.5470
H       3.1763  0.0095  -0.2069
H       -0.9064  -2.2764  -1.0218
H       -1.2435  -1.0443  -1.9569
