27

Co      -0.0537  -0.0198  -0.0353
Cl      -1.0916  1.6088  -1.2018
Cl      1.2286  1.5398  1.4408
C       2.8313  -0.7314  -0.8502
C       2.2290  -2.0548  -0.0950
C       -2.5939  -1.3246  -0.4634
C       -2.4756  -1.2316  1.0999
N       1.5256  0.0708  -1.3527
N       1.0547  -1.4650  0.8005
N       -1.1704  -1.3106  -0.9927
N       -1.5469  -0.0173  1.3462
H       2.8871  -2.6942  0.5186
H       1.7519  -2.6704  -0.8524
H       -3.0336  -0.3876  -0.8096
H       -3.1646  -2.1558  -0.8841
H       1.7062  1.0659  -1.3825
H       1.3003  -0.1984  -2.2909
H       -2.0411  0.8492  1.2179
H       -1.1656  0.0121  2.2823
H       -2.0266  -2.1015  1.5617
H       -3.4328  -1.0654  1.5651
H       0.4913  -2.1960  1.2070
H       1.4789  -0.9656  1.5673
H       3.4500  -0.9464  -1.7092
H       3.3706  -0.0634  -0.1880
H       -0.7624  -2.2363  -0.9462
H       -1.1784  -1.0367  -1.9588
