27

Co      -0.0013  0.0179  0.0193
Cl      -1.0737  1.5799  -1.2063
Cl      1.0999  1.3524  1.2858
C       2.6683  -0.7123  -0.8797
C       2.1469  -1.9225  -0.0527
C       -2.4746  -1.2809  -0.4534
C       -2.4014  -1.1409  1.0776
N       1.4945  0.1227  -1.2782
N       1.0210  -1.4798  0.8375
N       -1.0784  -1.2521  -1.0047
N       -1.4689  -0.0122  1.3657
H       3.0332  -2.3788  0.3783
H       1.6632  -2.6579  -0.6825
H       -2.9172  -0.4321  -0.9530
H       -3.0836  -2.1630  -0.6239
H       1.8106  1.0768  -1.3738
H       1.3928  -0.1551  -2.2567
H       -2.0076  0.8407  1.3077
H       -1.2038  -0.0514  2.3344
H       -1.9563  -1.9991  1.5747
H       -3.4152  -1.0319  1.4543
H       0.5477  -2.3084  1.1610
H       1.5586  -1.2090  1.6645
H       3.3323  -1.1656  -1.6247
H       3.2381  -0.0205  -0.2764
H       -0.8231  -2.2241  -1.0419
H       -1.1847  -0.9898  -1.9724
