27

Co      -0.0763  -0.0365  -0.0041
Cl      -1.0874  1.6037  -1.2030
Cl      1.1817  1.4767  1.3759
C       2.7949  -0.7312  -0.9123
C       2.2199  -1.9912  -0.1020
C       -2.5560  -1.2687  -0.4453
C       -2.4088  -1.1817  1.0646
N       1.5577  0.0899  -1.3056
N       1.0099  -1.4806  0.8434
N       -1.1209  -1.2315  -0.9220
N       -1.4738  -0.0396  1.2583
H       2.9551  -2.4558  0.5587
H       1.8171  -2.7642  -0.7517
H       -3.0803  -0.4289  -0.8666
H       -3.0228  -2.1885  -0.7770
H       1.7430  1.0926  -1.1988
H       1.3120  -0.0446  -2.2801
H       -1.9507  0.8321  1.0769
H       -1.1302  0.0402  2.2034
H       -1.9315  -2.0805  1.4499
H       -3.3321  -1.0336  1.6081
H       0.5238  -2.2769  1.2172
H       1.4324  -1.0087  1.6278
H       3.4182  -0.9507  -1.7723
H       3.3579  -0.1151  -0.2269
H       -0.7190  -2.1543  -0.8561
H       -1.1051  -0.9666  -1.8913
