27

Co      -0.0347  -0.0222  -0.0438
Cl      -1.1091  1.6630  -1.2369
Cl      1.2016  1.5006  1.4127
C       2.6704  -0.7185  -0.7357
C       2.1855  -2.0436  -0.0871
C       -2.5625  -1.3467  -0.4627
C       -2.4550  -1.1986  1.0773
N       1.4104  0.0540  -1.2742
N       1.1615  -1.5184  0.8170
N       -1.1305  -1.2534  -0.9406
N       -1.4349  -0.0638  1.2812
H       2.9293  -2.6897  0.3893
H       1.6971  -2.6220  -0.8756
H       -3.0530  -0.4566  -0.8367
H       -3.0628  -2.2220  -0.8705
H       1.6254  1.0361  -1.3580
H       1.2014  -0.2580  -2.2035
H       -1.8869  0.8368  1.2421
H       -1.0038  -0.1057  2.1925
H       -2.1084  -2.0865  1.5941
H       -3.4036  -0.9097  1.5153
H       0.6591  -2.2508  1.3073
H       1.6209  -0.9534  1.5337
H       3.2925  -0.9338  -1.5889
H       3.2085  -0.0581  -0.0761
H       -0.6793  -2.1564  -0.8288
H       -1.1386  -1.0386  -1.9248
