27

Co      -0.0311  -0.0646  0.0125
Cl      -1.1341  1.6849  -1.2466
Cl      1.2090  1.5266  1.4132
C       2.7557  -0.7489  -0.7973
C       2.1950  -1.9724  -0.0861
C       -2.6206  -1.3188  -0.4524
C       -2.4408  -1.2296  1.0569
N       1.5472  0.0728  -1.3654
N       1.1129  -1.5122  0.7992
N       -1.1869  -1.2922  -0.9102
N       -1.4810  -0.0465  1.2345
H       2.8110  -2.6116  0.5827
H       1.8150  -2.5969  -0.9059
H       -3.1519  -0.4106  -0.7262
H       -3.0560  -2.1939  -0.9973
H       1.6807  1.0829  -1.2794
H       1.1551  -0.1176  -2.2719
H       -1.8801  0.8582  1.0249
H       -1.0456  0.0347  2.1456
H       -2.0385  -2.1439  1.4727
H       -3.3293  -0.9561  1.6260
H       0.5076  -2.2561  1.0920
H       1.3672  -0.9382  1.6187
H       3.2108  -1.0098  -1.7710
H       3.4763  -0.1632  -0.2145
H       -0.6551  -2.1652  -0.7896
H       -1.0820  -0.9846  -1.8667
