27

Co      -0.0358  -0.0169  -0.0521
Cl      -1.1205  1.6630  -1.2328
Cl      1.2170  1.5240  1.4216
C       2.7588  -0.7314  -0.8290
C       2.2617  -2.1065  -0.0737
C       -2.5954  -1.3257  -0.4600
C       -2.4642  -1.2256  1.0987
N       1.4545  0.1083  -1.2790
N       1.1261  -1.5667  0.8789
N       -1.1647  -1.3101  -0.9831
N       -1.5105  -0.0250  1.3160
H       2.9986  -2.6917  0.4746
H       1.7881  -2.7509  -0.8060
H       -3.0378  -0.3918  -0.8116
H       -3.1594  -2.1617  -0.8806
H       1.6626  1.1026  -1.2513
H       1.2229  -0.0930  -2.2363
H       -1.9998  0.8470  1.2075
H       -1.1057  -0.0043  2.2432
H       -2.0300  -2.0995  1.5632
H       -3.4138  -1.0311  1.5735
H       0.5969  -2.3076  1.3180
H       1.5676  -1.0363  1.6241
H       3.3558  -0.8916  -1.7252
H       3.3120  -0.0811  -0.1634
H       -0.7465  -2.2299  -0.8922
H       -1.1767  -1.0784  -1.9642
