27

Co      -0.0687  -0.0306  -0.0180
Cl      -1.0668  1.5933  -1.1881
Cl      1.2046  1.5212  1.4148
C       2.6572  -0.7188  -0.8338
C       2.1558  -1.9407  -0.0918
C       -2.5556  -1.2968  -0.4629
C       -2.3609  -1.1502  1.0259
N       1.4815  0.0769  -1.2985
N       1.0344  -1.5300  0.8230
N       -1.1496  -1.3094  -0.9621
N       -1.3842  -0.0501  1.2182
H       2.9557  -2.4009  0.4796
H       1.7751  -2.6907  -0.7773
H       -3.0781  -0.4666  -0.9024
H       -3.0623  -2.2127  -0.7309
H       1.7019  1.0643  -1.2732
H       1.2421  -0.1301  -2.2500
H       -1.8372  0.8433  1.1412
H       -0.9894  -0.0597  2.1364
H       -1.9283  -2.0530  1.4367
H       -3.2754  -0.9490  1.5662
H       0.5589  -2.3440  1.1577
H       1.4341  -1.0798  1.6305
H       3.2788  -1.0053  -1.6661
H       3.2360  -0.0878  -0.1789
H       -0.7577  -2.2329  -0.8367
H       -1.1387  -1.1098  -1.9526
