27

Co      0.0067  0.0247  0.0240
Cl      -1.0758  1.5882  -1.1960
Cl      1.1390  1.3992  1.3312
C       2.5987  -0.7309  -0.7703
C       2.1146  -1.8799  -0.0942
C       -2.5154  -1.2862  -0.4620
C       -2.3393  -1.1322  1.0273
N       1.4652  0.0491  -1.2298
N       1.1267  -1.4478  0.7733
N       -1.1776  -1.4209  -1.1074
N       -1.4596  0.0144  1.3450
H       2.9213  -2.3957  0.4004
H       1.6922  -2.5672  -0.8131
H       -2.9807  -0.4073  -0.8641
H       -3.1566  -2.1349  -0.6775
H       1.7364  1.0066  -1.3878
H       1.1483  -0.2973  -2.1165
H       -1.9321  0.8968  1.2736
H       -1.1110  -0.0419  2.2782
H       -1.8898  -2.0169  1.4602
H       -3.3130  -1.0133  1.4811
H       0.5923  -2.2299  1.0885
H       1.5404  -1.0323  1.5859
H       3.1691  -1.0909  -1.6151
H       3.2479  -0.1147  -0.1602
H       -0.8682  -2.3715  -1.0867
H       -1.2378  -1.1359  -2.0667
