27

Co      -0.0028  -0.0079  -0.0092
Cl      -1.0747  1.5696  -1.1801
Cl      1.1880  1.4890  1.3892
C       2.7666  -0.7157  -0.8696
C       2.2090  -2.0287  -0.0597
C       -2.6285  -1.3228  -0.4766
C       -2.4278  -1.2121  1.0710
N       1.4602  0.1213  -1.2871
N       1.0078  -1.4437  0.7998
N       -1.1967  -1.3049  -0.9822
N       -1.4662  -0.0139  1.2501
H       2.8857  -2.5979  0.5870
H       1.7707  -2.7111  -0.7828
H       -3.0895  -0.4082  -0.8306
H       -3.1809  -2.1749  -0.8641
H       1.6552  1.1134  -1.2992
H       1.1766  -0.1121  -2.2192
H       -1.9567  0.8523  1.0787
H       -1.1167  0.0602  2.1925
H       -1.9622  -2.0872  1.5090
H       -3.3457  -1.0188  1.6152
H       0.3965  -2.1683  1.1443
H       1.4114  -1.0004  1.6069
H       3.3089  -0.9507  -1.7862
H       3.3830  -0.0625  -0.2554
H       -0.8049  -2.2304  -0.9309
H       -1.1873  -1.0288  -1.9507
