27

Co      0.0004  -0.0058  0.0145
Cl      -1.0913  1.6324  -1.2291
Cl      1.1100  1.3621  1.3102
C       2.6280  -0.6630  -0.8013
C       2.0837  -1.9298  -0.0994
C       -2.4528  -1.2866  -0.4665
C       -2.3774  -1.1241  1.0656
N       1.4373  0.0710  -1.3025
N       1.0634  -1.4665  0.8890
N       -1.0546  -1.2827  -1.0141
N       -1.4181  -0.0268  1.3544
H       2.9575  -2.5196  0.2170
H       1.4944  -2.5395  -0.7884
H       -2.8817  -0.4305  -0.9748
H       -3.0793  -2.1599  -0.6230
H       1.7050  1.0276  -1.5145
H       1.3520  -0.3358  -2.2464
H       -1.9372  0.8438  1.3224
H       -1.1364  -0.0891  2.3175
H       -1.9602  -1.9930  1.5664
H       -3.3866  -0.9901  1.4378
H       0.6335  -2.2746  1.3235
H       1.6786  -1.1360  1.6413
H       3.4246  -1.0174  -1.4720
H       3.0458  0.0470  -0.0969
H       -0.8142  -2.2606  -1.0292
H       -1.1515  -1.0381  -1.9844
