27

Co      0.0276  0.0773  -0.0164
Cl      -1.0737  1.5766  -1.2009
Cl      1.1425  1.4049  1.3423
C       2.6388  -0.7258  -0.8401
C       2.1440  -1.9289  -0.1400
C       -2.5044  -1.2910  -0.4148
C       -2.4375  -1.1376  1.0600
N       1.5222  0.0317  -1.2669
N       1.0871  -1.5029  0.8743
N       -1.1598  -1.3944  -1.0968
N       -1.5529  -0.0611  1.4301
H       3.0064  -2.3063  0.4076
H       1.7478  -2.7323  -0.7512
H       -3.0439  -0.4921  -0.8955
H       -3.0592  -2.2095  -0.5662
H       1.7935  0.9900  -1.4114
H       1.1648  -0.2899  -2.1511
H       -2.0069  0.8292  1.3549
H       -1.2255  -0.1417  2.3745
H       -2.0438  -2.0544  1.4725
H       -3.4409  -1.0238  1.4493
H       0.5647  -2.3127  1.1562
H       1.5255  -1.1285  1.6925
H       3.3799  -0.9106  -1.6140
H       3.1165  -0.1372  -0.0634
H       -0.8566  -2.3487  -1.1439
H       -1.2826  -1.0735  -2.0426
