27

Co      0.0530  -0.0062  0.0176
Cl      -1.0799  1.6081  -1.2289
Cl      1.1266  1.4081  1.3399
C       2.5506  -0.6864  -0.7776
C       2.0306  -1.8290  -0.0708
C       -2.4734  -1.3516  -0.4368
C       -2.4380  -1.1076  1.0620
N       1.4916  0.0935  -1.3915
N       1.0650  -1.5118  0.8748
N       -1.1291  -1.3228  -1.0925
N       -1.4479  -0.0566  1.4127
H       2.8677  -2.3799  0.3345
H       1.5661  -2.4718  -0.8055
H       -3.0393  -0.5595  -0.8959
H       -2.9860  -2.2810  -0.6398
H       1.7481  1.0495  -1.5368
H       1.2210  -0.2742  -2.2869
H       -1.8439  0.8699  1.4029
H       -1.0837  -0.2006  2.3375
H       -2.1737  -2.0084  1.6174
H       -3.4493  -0.8281  1.3703
H       0.5105  -2.3297  1.0712
H       1.4508  -1.1813  1.7465
H       3.1908  -1.1405  -1.5363
H       3.1579  -0.0410  -0.1715
H       -0.7840  -2.2556  -1.2419
H       -1.2430  -0.8889  -1.9998
