27

Co      0.0031  0.0152  -0.0175
Cl      -1.0902  1.6146  -1.2119
Cl      1.2016  1.5024  1.4205
C       2.6919  -0.7117  -0.7905
C       2.1290  -1.9529  -0.1337
C       -2.5803  -1.3416  -0.4454
C       -2.4656  -1.1841  1.0579
N       1.5117  0.0141  -1.3505
N       1.0864  -1.4734  0.8286
N       -1.1869  -1.3448  -1.0083
N       -1.4974  -0.0859  1.3244
H       2.8908  -2.5306  0.3780
H       1.6592  -2.5958  -0.8649
H       -3.0999  -0.5001  -0.8762
H       -3.1040  -2.2432  -0.7192
H       1.7304  0.9863  -1.5218
H       1.2394  -0.3719  -2.2368
H       -1.9458  0.8103  1.2442
H       -1.1373  -0.1302  2.2608
H       -2.0926  -2.0904  1.5134
H       -3.4254  -0.9734  1.4991
H       0.5548  -2.2455  1.1803
H       1.5325  -1.0402  1.6138
H       3.4232  -0.9454  -1.5525
H       3.1590  -0.0659  -0.0576
H       -0.8213  -2.2802  -0.9905
H       -1.2339  -1.0642  -1.9691
