27

Co      0.0537  0.0164  0.0386
Cl      -1.0851  1.6151  -1.2292
Cl      1.0857  1.3388  1.2802
C       2.5251  -0.6819  -0.7876
C       2.0551  -1.8578  -0.0474
C       -2.4778  -1.3265  -0.4659
C       -2.3761  -1.1021  1.0435
N       1.4195  0.1106  -1.2790
N       1.0753  -1.5047  0.8642
N       -1.1056  -1.2998  -1.0442
N       -1.3747  -0.0399  1.3286
H       2.9995  -2.3727  0.2331
H       1.5277  -2.5166  -0.7278
H       -2.9499  -0.5114  -0.9934
H       -3.0895  -2.2287  -0.5631
H       1.7579  1.0474  -1.4994
H       1.3065  -0.2830  -2.2165
H       -1.8700  0.8447  1.3462
H       -1.0921  -0.1604  2.2841
H       -2.0155  -1.9714  1.5898
H       -3.3851  -0.9008  1.3954
H       0.6036  -2.3413  1.1597
H       1.6254  -1.2665  1.7001
H       3.2087  -1.2047  -1.4902
H       3.0953  0.0210  -0.2026
H       -0.8706  -2.2737  -1.1050
H       -1.2297  -1.0210  -2.0044
