27

Co      -0.0144  0.0296  0.0505
Cl      -1.0958  1.6206  -1.2368
Cl      1.1171  1.3612  1.3051
C       2.7293  -0.7139  -0.8155
C       2.1304  -1.9202  -0.1253
C       -2.5077  -1.3257  -0.4522
C       -2.4263  -1.1342  1.0540
N       1.5499  0.0287  -1.3300
N       1.0991  -1.4229  0.8390
N       -1.1269  -1.2930  -1.0373
N       -1.4703  -0.0457  1.3875
H       2.8659  -2.5275  0.3822
H       1.6277  -2.5498  -0.8513
H       -3.0642  -0.5223  -0.9049
H       -3.0000  -2.2565  -0.6841
H       1.7603  0.9982  -1.4942
H       1.2522  -0.3490  -2.2153
H       -1.9092  0.8601  1.3472
H       -1.1167  -0.1393  2.3222
H       -2.0659  -2.0406  1.5281
H       -3.4044  -0.9298  1.4601
H       0.5744  -2.2001  1.1905
H       1.5619  -1.0032  1.6233
H       3.4036  -1.0049  -1.6088
H       3.2660  -0.0876  -0.1257
H       -0.7558  -2.2209  -1.1006
H       -1.1798  -0.9149  -1.9618
