27

Co      0.0018  0.0244  0.0018
Cl      -1.0445  1.5485  -1.1828
Cl      1.1141  1.3835  1.3184
C       2.5509  -0.7129  -0.8193
C       2.0574  -1.8066  -0.1087
C       -2.4320  -1.2543  -0.4163
C       -2.3769  -1.1070  1.0387
N       1.5229  0.0519  -1.3184
N       1.0202  -1.4921  0.8132
N       -1.0758  -1.3030  -1.0085
N       -1.4672  -0.0594  1.3690
H       2.9401  -2.1621  0.4229
H       1.7171  -2.6236  -0.7447
H       -2.9872  -0.4756  -0.9010
H       -2.9342  -2.1946  -0.5968
H       1.7984  1.0096  -1.4054
H       1.2267  -0.2394  -2.2301
H       -1.9003  0.8406  1.2938
H       -1.1335  -0.1287  2.3031
H       -2.0045  -2.0266  1.4690
H       -3.3703  -0.9536  1.4332
H       0.5237  -2.3444  1.0224
H       1.3975  -1.1527  1.6841
H       3.2288  -1.0922  -1.5737
H       3.1255  -0.1123  -0.1437
H       -0.7414  -2.2403  -1.0025
H       -1.1516  -1.0161  -1.9664
