27

Co      -0.0527  -0.0429  -0.0239
Cl      -1.0671  1.5628  -1.1800
Cl      1.1950  1.4845  1.3985
C       2.7190  -0.7324  -0.8321
C       2.1567  -1.9310  -0.1096
C       -2.5522  -1.2942  -0.4354
C       -2.4248  -1.1657  1.0659
N       1.5300  0.0546  -1.2806
N       1.0757  -1.4005  0.7871
N       -1.1598  -1.2264  -0.9947
N       -1.4932  -0.0356  1.2806
H       2.9015  -2.4512  0.4832
H       1.7233  -2.6426  -0.7972
H       -3.1139  -0.4726  -0.8454
H       -3.0203  -2.2218  -0.7319
H       1.7440  1.0434  -1.2641
H       1.2961  -0.1629  -2.2315
H       -1.9525  0.8477  1.1207
H       -1.1468  0.0086  2.2221
H       -1.9961  -2.0558  1.5073
H       -3.3763  -0.9879  1.5388
H       0.6018  -2.1701  1.2340
H       1.5181  -0.8626  1.5238
H       3.3413  -1.0095  -1.6681
H       3.2973  -0.1157  -0.1631
H       -0.7707  -2.1532  -1.0307
H       -1.2135  -0.8843  -1.9364
