27

Co      -0.0541  -0.0217  -0.0577
Cl      -1.0743  1.5912  -1.1812
Cl      1.2087  1.5193  1.4313
C       2.6841  -0.7140  -0.8173
C       2.1367  -1.9434  -0.1118
C       -2.5305  -1.2526  -0.4351
C       -2.4220  -1.2128  1.0713
N       1.5406  0.0654  -1.4008
N       1.0605  -1.5491  0.8582
N       -1.1099  -1.2802  -0.9132
N       -1.5296  -0.0461  1.2958
H       2.9353  -2.4676  0.3985
H       1.7080  -2.6288  -0.8268
H       -2.9850  -0.3480  -0.8169
H       -3.0721  -2.1083  -0.8206
H       1.7627  1.0511  -1.4028
H       1.3518  -0.1852  -2.3537
H       -2.0245  0.8173  1.1454
H       -1.1586  0.0054  2.2289
H       -1.9431  -2.1058  1.4646
H       -3.3780  -1.1023  1.5645
H       0.5931  -2.3639  1.2112
H       1.4721  -1.0838  1.6479
H       3.3941  -1.0038  -1.5759
H       3.1812  -0.0654  -0.1149
H       -0.7162  -2.2083  -0.7526
H       -1.0986  -1.1208  -1.9177
