27

Co      0.0439  -0.0029  0.0233
Cl      -1.1031  1.6476  -1.2334
Cl      1.1072  1.3772  1.3094
C       2.5970  -0.6786  -0.8377
C       2.0755  -1.8746  -0.1379
C       -2.4615  -1.2356  -0.4241
C       -2.3694  -1.1299  1.0431
N       1.4925  0.0487  -1.3055
N       1.0122  -1.5007  0.8970
N       -1.0729  -1.3582  -0.9863
N       -1.4669  -0.0651  1.3357
H       2.9255  -2.2835  0.3851
H       1.6650  -2.6548  -0.7718
H       -2.9545  -0.4095  -0.8958
H       -3.0102  -2.1400  -0.6340
H       1.7063  1.0215  -1.4108
H       1.1579  -0.2621  -2.2008
H       -1.9110  0.8228  1.1476
H       -1.1911  -0.0353  2.2996
H       -1.9468  -2.0570  1.4165
H       -3.3374  -1.0119  1.5035
H       0.4989  -2.3305  1.1416
H       1.4463  -1.1706  1.7418
H       3.3519  -0.9003  -1.5878
H       3.0611  -0.0787  -0.0693
H       -0.7865  -2.3155  -0.9577
H       -1.1093  -1.0838  -1.9491
