27

Co      0.0517  0.0222  0.0301
Cl      -1.1016  1.6112  -1.2235
Cl      1.0958  1.3348  1.2896
C       2.6676  -0.6836  -0.8203
C       2.0845  -1.8956  -0.1014
C       -2.5025  -1.2815  -0.4388
C       -2.4225  -1.1601  1.0749
N       1.5381  0.0959  -1.3820
N       1.0973  -1.4740  0.9372
N       -1.1258  -1.3151  -1.0510
N       -1.5381  -0.0113  1.4034
H       2.8692  -2.5053  0.3206
H       1.5457  -2.5102  -0.8214
H       -2.9951  -0.4132  -0.8405
H       -3.0635  -2.1535  -0.7225
H       1.7628  1.0637  -1.5142
H       1.2456  -0.2583  -2.2762
H       -2.0091  0.8672  1.2569
H       -1.2309  -0.0170  2.3569
H       -1.9959  -2.0527  1.5169
H       -3.4175  -1.0378  1.4876
H       0.5529  -2.2640  1.2309
H       1.5513  -1.0973  1.7459
H       3.3545  -1.0120  -1.5913
H       3.2052  -0.0533  -0.1376
H       -0.8010  -2.2603  -1.1268
H       -1.1884  -0.9315  -1.9764
