27

Co      -0.0492  -0.0208  -0.0365
Cl      -1.0978  1.6449  -1.2359
Cl      1.1938  1.4986  1.4039
C       2.6429  -0.7179  -0.8094
C       2.1642  -1.9745  -0.0902
C       -2.5308  -1.3419  -0.4373
C       -2.4469  -1.1453  1.0625
N       1.4931  0.0865  -1.3288
N       1.1188  -1.5985  0.9175
N       -1.1301  -1.2477  -0.9797
N       -1.4262  -0.0873  1.3058
H       3.0090  -2.4700  0.3774
H       1.7229  -2.6765  -0.7805
H       -3.1184  -0.5588  -0.9028
H       -2.9644  -2.3015  -0.7023
H       1.7301  1.0686  -1.3026
H       1.2787  -0.1251  -2.2873
H       -1.8457  0.8302  1.2998
H       -0.9997  -0.1810  2.2140
H       -2.1270  -2.0542  1.5562
H       -3.4051  -0.8651  1.4809
H       0.6748  -2.4194  1.2898
H       1.5520  -1.1148  1.6911
H       3.3135  -0.9862  -1.6108
H       3.1804  -0.0891  -0.1242
H       -0.7032  -2.1574  -0.9603
H       -1.1829  -0.9594  -1.9375
