27

Co      0.0482  0.0374  0.0233
Cl      -1.1100  1.6342  -1.2395
Cl      1.1167  1.3808  1.3133
C       2.6676  -0.7184  -0.8716
C       2.1219  -1.8858  -0.1304
C       -2.4996  -1.2755  -0.4064
C       -2.4526  -1.1541  1.0670
N       1.5862  0.0534  -1.3475
N       1.0517  -1.5201  0.9062
N       -1.1266  -1.3457  -1.0209
N       -1.5627  -0.0768  1.4099
H       2.9746  -2.2904  0.3972
H       1.7098  -2.6721  -0.7525
H       -3.0325  -0.4720  -0.8823
H       -3.0213  -2.1996  -0.6076
H       1.8372  1.0185  -1.4440
H       1.2538  -0.2426  -2.2466
H       -2.0127  0.8078  1.2557
H       -1.2827  -0.0941  2.3747
H       -2.0539  -2.0751  1.4727
H       -3.4497  -1.0369  1.4691
H       0.5220  -2.3609  1.1066
H       1.4687  -1.2134  1.7717
H       3.4020  -0.9984  -1.6207
H       3.1746  -0.1221  -0.1305
H       -0.8234  -2.2995  -1.0809
H       -1.2082  -0.9995  -1.9591
