27

Co      -0.0088  -0.0340  -0.0006
Cl      -1.1039  1.6385  -1.2207
Cl      1.1692  1.4543  1.3778
C       2.7041  -0.7075  -0.7947
C       2.1236  -1.9346  -0.1370
C       -2.5340  -1.2736  -0.4398
C       -2.4246  -1.1913  1.0641
N       1.5085  0.0138  -1.3157
N       1.0687  -1.4161  0.7936
N       -1.1132  -1.2765  -0.9308
N       -1.4970  -0.0608  1.2874
H       2.8555  -2.5150  0.4105
H       1.6593  -2.5857  -0.8673
H       -3.0155  -0.3970  -0.8365
H       -3.0534  -2.1536  -0.7888
H       1.6984  0.9975  -1.4257
H       1.2538  -0.3233  -2.2239
H       -1.9633  0.8169  1.0920
H       -1.1836  0.0081  2.2440
H       -1.9916  -2.0939  1.4821
H       -3.3755  -1.0301  1.5436
H       0.5602  -2.1798  1.2027
H       1.5257  -0.9407  1.5524
H       3.4055  -0.9430  -1.5795
H       3.1934  -0.0729  -0.0732
H       -0.7486  -2.2119  -0.8693
H       -1.1158  -1.0197  -1.9007
