27

Co      -0.0556  -0.0547  -0.0406
Cl      -1.0872  1.6247  -1.1982
Cl      1.2216  1.5387  1.4418
C       2.6857  -0.7156  -0.8101
C       2.1445  -1.9474  -0.1234
C       -2.5156  -1.2579  -0.4461
C       -2.3848  -1.1815  1.0637
N       1.5018  0.0411  -1.3232
N       1.0579  -1.4940  0.8103
N       -1.1269  -1.3638  -1.0042
N       -1.5047  -0.0166  1.3188
H       2.9150  -2.4735  0.4275
H       1.7189  -2.6350  -0.8377
H       -2.9486  -0.3444  -0.8318
H       -3.1244  -2.0942  -0.7723
H       1.7027  1.0299  -1.3482
H       1.2777  -0.2214  -2.2629
H       -1.9844  0.8541  1.1626
H       -1.1484  0.0264  2.2592
H       -1.9091  -2.0679  1.4672
H       -3.3466  -1.0780  1.5398
H       0.5785  -2.2858  1.1940
H       1.4797  -1.0095  1.5851
H       3.3665  -0.9628  -1.6036
H       3.1959  -0.0759  -0.1077
H       -0.7840  -2.3108  -0.9125
H       -1.1444  -1.1452  -1.9877
