27

Co      -0.0166  -0.0112  0.0340
Cl      -1.0800  1.5966  -1.2002
Cl      1.1433  1.4122  1.3397
C       2.6295  -0.7239  -0.7909
C       2.0922  -1.8439  -0.0936
C       -2.5070  -1.2742  -0.4588
C       -2.3422  -1.1385  1.0296
N       1.5245  0.0595  -1.3131
N       1.0965  -1.4546  0.7931
N       -1.1529  -1.3673  -1.0566
N       -1.4601  0.0089  1.3252
H       2.8854  -2.3939  0.3861
H       1.6532  -2.5082  -0.8261
H       -2.9833  -0.4017  -0.8602
H       -3.1104  -2.1359  -0.7056
H       1.7743  1.0257  -1.4148
H       1.2572  -0.2600  -2.2222
H       -1.9304  0.8895  1.2246
H       -1.1181  -0.0166  2.2617
H       -1.8831  -2.0239  1.4564
H       -3.3093  -1.0205  1.4969
H       0.5882  -2.2634  1.0855
H       1.4990  -1.0503  1.6182
H       3.2138  -1.1557  -1.6012
H       3.2814  -0.0962  -0.1972
H       -0.8262  -2.3128  -1.0357
H       -1.1837  -1.0725  -2.0126
