27

Co      -0.0258  -0.0358  0.0183
Cl      -1.0985  1.6374  -1.2368
Cl      1.1729  1.4749  1.3808
C       2.7335  -0.7166  -0.8074
C       2.1468  -1.9541  -0.0673
C       -2.5645  -1.3641  -0.4649
C       -2.4723  -1.1874  1.0720
N       1.5132  0.0766  -1.3874
N       1.0458  -1.4705  0.7861
N       -1.1257  -1.2095  -0.9152
N       -1.4243  -0.0759  1.2857
H       2.8390  -2.6086  0.4698
H       1.6788  -2.5464  -0.8580
H       -3.0987  -0.5181  -0.8651
H       -3.0071  -2.2808  -0.8544
H       1.7098  1.0600  -1.4521
H       1.3034  -0.2342  -2.3169
H       -1.8551  0.8312  1.2274
H       -1.0325  -0.1181  2.2092
H       -2.1538  -2.0797  1.6084
H       -3.4163  -0.8649  1.5042
H       0.4841  -2.2342  1.1081
H       1.4420  -1.0386  1.6047
H       3.3116  -1.0999  -1.6420
H       3.3507  -0.0420  -0.2270
H       -0.6723  -2.1090  -0.8954
H       -1.1140  -0.8973  -1.8669
