27

Co      0.0000  -0.0092  0.0004
Cl      -1.0573  1.5779  -1.1956
Cl      1.1270  1.4074  1.3331
C       2.6020  -0.6791  -0.8274
C       2.0887  -1.9016  -0.0793
C       -2.4575  -1.2830  -0.4526
C       -2.3673  -1.1157  1.0553
N       1.4474  0.1051  -1.3213
N       0.9966  -1.4971  0.8580
N       -1.0779  -1.3194  -1.0352
N       -1.4167  -0.0214  1.3566
H       2.8882  -2.3832  0.4529
H       1.6715  -2.6233  -0.7689
H       -2.9624  -0.4453  -0.8922
H       -3.0007  -2.1788  -0.7038
H       1.6637  1.0799  -1.3801
H       1.1608  -0.1764  -2.2411
H       -1.8522  0.8807  1.2859
H       -1.0530  -0.0752  2.2830
H       -1.9948  -2.0159  1.5208
H       -3.3419  -0.9173  1.4721
H       0.4526  -2.2960  1.1202
H       1.3933  -1.1211  1.7021
H       3.2389  -0.9821  -1.6422
H       3.1682  -0.0453  -0.1714
H       -0.7271  -2.2517  -1.0387
H       -1.1265  -1.0053  -1.9852
