27

Co      -0.0004  -0.0065  -0.0155
Cl      -1.0974  1.6018  -1.2084
Cl      1.1632  1.4438  1.3617
C       2.7453  -0.6961  -0.8574
C       2.1882  -2.0289  -0.0504
C       -2.6068  -1.3310  -0.4638
C       -2.4569  -1.2072  1.0876
N       1.4946  0.1649  -1.3703
N       1.0846  -1.5375  0.9526
N       -1.1709  -1.2325  -0.9715
N       -1.4819  -0.0219  1.2821
H       2.9223  -2.6639  0.4391
H       1.6581  -2.6403  -0.7858
H       -3.1134  -0.4443  -0.8281
H       -3.0991  -2.2128  -0.8626
H       1.6982  1.1569  -1.3355
H       1.2631  -0.0470  -2.3248
H       -1.9639  0.8542  1.1511
H       -1.1029  0.0137  2.2129
H       -2.0245  -2.0848  1.5522
H       -3.3934  -0.9919  1.5902
H       0.5377  -2.2957  1.3223
H       1.5251  -1.0714  1.7292
H       3.3408  -0.9669  -1.7240
H       3.3309  -0.0406  -0.2277
H       -0.7470  -2.1453  -0.9614
H       -1.1770  -0.9117  -1.9228
