27

Co      -0.0141  0.0049  0.0262
Cl      -1.0908  1.6186  -1.2221
Cl      1.1596  1.4397  1.3613
C       2.7011  -0.7123  -0.8387
C       2.1299  -1.9135  -0.1059
C       -2.5148  -1.3159  -0.4565
C       -2.4002  -1.1361  1.0537
N       1.5433  0.0658  -1.3551
N       1.0629  -1.4909  0.8615
N       -1.1603  -1.3959  -1.1030
N       -1.4859  -0.0133  1.4012
H       2.8999  -2.4703  0.4031
H       1.6619  -2.5776  -0.8178
H       -3.0129  -0.4677  -0.8925
H       -3.1043  -2.1972  -0.6715
H       1.7627  1.0384  -1.4599
H       1.2546  -0.2589  -2.2582
H       -1.9361  0.8815  1.3473
H       -1.1285  -0.0955  2.3355
H       -1.9971  -2.0282  1.5093
H       -3.3833  -0.9836  1.4680
H       0.5261  -2.2943  1.1289
H       1.4786  -1.1170  1.6951
H       3.3528  -1.0383  -1.6348
H       3.2666  -0.0769  -0.1778
H       -0.8343  -2.3433  -1.1615
H       -1.2240  -1.0345  -2.0350
