27

Co      0.0022  0.0175  0.0227
Cl      -1.0647  1.5824  -1.2128
Cl      1.0869  1.3314  1.2818
C       2.5753  -0.7014  -0.7711
C       2.0613  -1.8456  -0.0794
C       -2.4270  -1.2928  -0.4400
C       -2.3925  -1.1114  1.0568
N       1.4906  0.0765  -1.3354
N       1.0889  -1.4774  0.8309
N       -1.0581  -1.2504  -1.0158
N       -1.4413  -0.0313  1.3964
H       2.8809  -2.3842  0.3630
H       1.6157  -2.5070  -0.8087
H       -2.9731  -0.4822  -0.8799
H       -2.9209  -2.2127  -0.6988
H       1.7485  1.0342  -1.4604
H       1.2284  -0.2667  -2.2429
H       -1.8704  0.8793  1.3821
H       -1.0654  -0.1465  2.3151
H       -2.0665  -2.0127  1.5683
H       -3.3957  -0.8877  1.4078
H       0.5743  -2.2851  1.1168
H       1.4964  -1.0806  1.6578
H       3.1927  -1.1234  -1.5602
H       3.1936  -0.0717  -0.1605
H       -0.6736  -2.1676  -1.0439
H       -1.1238  -0.9099  -1.9541
