27

Co      0.0043  0.0268  -0.0002
Cl      -1.0696  1.5655  -1.1856
Cl      1.1329  1.3928  1.3340
C       2.6182  -0.7247  -0.7934
C       2.0891  -1.8519  -0.0820
C       -2.4902  -1.2640  -0.4381
C       -2.3941  -1.1674  1.0615
N       1.5514  0.0864  -1.3742
N       1.1137  -1.5101  0.8438
N       -1.1359  -1.3425  -1.0486
N       -1.5485  0.0088  1.3975
H       2.9180  -2.3929  0.3520
H       1.6420  -2.5115  -0.8103
H       -2.9514  -0.3688  -0.8186
H       -3.0972  -2.1062  -0.7344
H       1.8322  1.0446  -1.4746
H       1.3025  -0.2333  -2.2892
H       -2.0389  0.8772  1.3029
H       -1.1989  -0.0280  2.3315
H       -1.9365  -2.0472  1.5001
H       -3.3968  -1.0815  1.4729
H       0.5956  -2.3300  1.1004
H       1.5036  -1.1253  1.6841
H       3.2318  -1.1776  -1.5734
H       3.2521  -0.0904  -0.1924
H       -0.7951  -2.2836  -1.0271
H       -1.1916  -1.0579  -2.0086
