27

Co      0.0141  0.0646  -0.0004
Cl      -1.0427  1.5390  -1.1845
Cl      1.1054  1.3544  1.3079
C       2.5812  -0.6720  -0.8341
C       2.0603  -1.8715  -0.1280
C       -2.4513  -1.2922  -0.4302
C       -2.3854  -1.0807  1.0403
N       1.5017  0.0715  -1.3407
N       1.0442  -1.5120  0.9551
N       -1.1086  -1.3394  -1.1018
N       -1.4522  -0.0539  1.4128
H       2.9354  -2.3002  0.3384
H       1.6100  -2.6290  -0.7545
H       -3.0468  -0.5472  -0.9482
H       -2.9485  -2.2565  -0.5337
H       1.7463  1.0320  -1.4758
H       1.1685  -0.2679  -2.2288
H       -1.8748  0.8619  1.4037
H       -1.0917  -0.1896  2.3361
H       -2.0344  -2.0065  1.4737
H       -3.3802  -0.9141  1.4280
H       0.5505  -2.3448  1.2196
H       1.4947  -1.1568  1.7766
H       3.3586  -0.9069  -1.5653
H       3.0350  -0.0707  -0.0584
H       -0.7881  -2.2813  -1.1808
H       -1.2231  -0.9734  -2.0302
