27

Co      -0.0103  0.0359  0.0332
Cl      -1.0842  1.6077  -1.2155
Cl      1.1530  1.4267  1.3479
C       2.6800  -0.7168  -0.8229
C       2.1474  -1.9374  -0.1066
C       -2.5549  -1.3328  -0.4695
C       -2.3826  -1.1322  1.0269
N       1.4958  0.0529  -1.2884
N       1.0784  -1.4837  0.8388
N       -1.1849  -1.3908  -1.0708
N       -1.4219  -0.0371  1.3258
H       2.9236  -2.4672  0.4227
H       1.7013  -2.6272  -0.8097
H       -3.0786  -0.5099  -0.9231
H       -3.1115  -2.2401  -0.6630
H       1.7269  1.0215  -1.4276
H       1.1744  -0.2866  -2.1763
H       -1.8693  0.8644  1.3008
H       -1.0508  -0.1304  2.2519
H       -1.9844  -2.0359  1.4668
H       -3.3310  -0.9397  1.5010
H       0.5374  -2.2723  1.1343
H       1.5078  -1.0983  1.6598
H       3.3176  -0.9926  -1.6488
H       3.2475  -0.0906  -0.1528
H       -0.8396  -2.3287  -1.0611
H       -1.2245  -1.0881  -2.0232
