27

Co      0.0103  -0.0359  -0.0332
Cl      -1.0926  1.6163  -1.2156
Cl      1.1614  1.4520  1.3731
C       2.6472  -0.7089  -0.7964
C       2.1175  -1.9235  -0.1124
C       -2.5001  -1.2733  -0.4058
C       -2.4532  -1.1781  1.0849
N       1.5191  0.0768  -1.3619
N       1.0836  -1.5041  0.8766
N       -1.1058  -1.2626  -0.9752
N       -1.5403  -0.0536  1.3604
H       2.8228  -2.4422  0.5276
H       1.7480  -2.6303  -0.8483
H       -3.0836  -0.4260  -0.7319
H       -2.9076  -2.1861  -0.8632
H       1.6685  1.0763  -1.2985
H       1.0910  -0.1255  -2.2589
H       -1.9147  0.8629  1.1472
H       -1.1302  -0.0074  2.2759
H       -2.1079  -2.1096  1.5087
H       -3.4076  -0.9402  1.5287
H       0.5037  -2.2655  1.1676
H       1.3638  -0.9385  1.6821
H       3.2324  -0.8804  -1.6972
H       3.2492  -0.1554  -0.0959
H       -0.6181  -2.1469  -0.9772
H       -1.1072  -0.8699  -1.9004
