27

Co      -0.0517  -0.0341  -0.0316
Cl      -1.0870  1.6230  -1.2140
Cl      1.1774  1.4711  1.3823
C       2.6262  -0.7065  -0.8020
C       2.1497  -1.9628  -0.0923
C       -2.5317  -1.3001  -0.4453
C       -2.3947  -1.1477  1.0472
N       1.4599  0.0887  -1.2867
N       1.1062  -1.5505  0.8953
N       -1.1140  -1.2221  -0.9362
N       -1.3946  -0.0680  1.2327
H       2.9800  -2.4571  0.3951
H       1.7113  -2.6735  -0.7802
H       -3.0975  -0.4956  -0.8879
H       -2.9705  -2.2460  -0.7393
H       1.6839  1.0761  -1.2460
H       1.2409  -0.1089  -2.2484
H       -1.8342  0.8353  1.1569
H       -0.9922  -0.0818  2.1489
H       -2.0101  -2.0556  1.4918
H       -3.3252  -0.9049  1.5416
H       0.6734  -2.3568  1.3186
H       1.5551  -1.0336  1.6430
H       3.2815  -0.9533  -1.6234
H       3.1693  -0.0853  -0.1147
H       -0.6923  -2.1327  -0.8518
H       -1.1281  -0.9829  -1.9121
