27

Co      0.0276  0.0764  -0.0160
Cl      -1.0511  1.5620  -1.2005
Cl      1.1263  1.3980  1.3316
C       2.5962  -0.7037  -0.8692
C       2.1220  -1.9212  -0.1035
C       -2.4483  -1.3172  -0.4310
C       -2.4364  -1.0982  1.0695
N       1.4643  0.0570  -1.2545
N       0.9941  -1.5126  0.8482
N       -1.0988  -1.3669  -1.1012
N       -1.4789  -0.0761  1.4558
H       3.0858  -2.2404  0.3499
H       1.6969  -2.7520  -0.6644
H       -2.9417  -0.5473  -1.0278
H       -3.0651  -2.2458  -0.4348
H       1.8033  0.9941  -1.4779
H       1.2875  -0.3118  -2.1832
H       -1.9711  0.8081  1.5017
H       -1.2004  -0.2465  2.4160
H       -2.0934  -1.9877  1.5801
H       -3.4845  -0.9594  1.3522
H       0.5111  -2.3600  1.1096
H       1.5364  -1.3057  1.7017
H       3.4092  -1.0190  -1.5396
H       3.0181  -0.0298  -0.1282
H       -0.8959  -2.3566  -1.1975
H       -1.2960  -1.0913  -2.0611
