27

Co      -0.0123  0.0380  0.0280
Cl      -1.0780  1.5892  -1.2093
Cl      1.1468  1.4158  1.3466
C       2.7250  -0.7196  -0.8442
C       2.1317  -1.9098  -0.1096
C       -2.5148  -1.3141  -0.4528
C       -2.4223  -1.1508  1.0592
N       1.5709  0.0548  -1.3790
N       1.0537  -1.4744  0.8395
N       -1.1529  -1.3757  -1.0791
N       -1.5171  -0.0206  1.4233
H       2.8870  -2.4703  0.4178
H       1.6711  -2.5739  -0.8251
H       -3.0129  -0.4641  -0.8851
H       -3.0914  -2.1954  -0.6880
H       1.7994  1.0218  -1.5205
H       1.2766  -0.3012  -2.2711
H       -1.9784  0.8687  1.3785
H       -1.1616  -0.1121  2.3575
H       -2.0173  -2.0448  1.5130
H       -3.4127  -1.0093  1.4643
H       0.4967  -2.2741  1.0867
H       1.4621  -1.1207  1.6859
H       3.3859  -1.0585  -1.6293
H       3.2849  -0.0805  -0.1814
H       -0.8122  -2.3176  -1.1192
H       -1.2112  -1.0308  -2.0167
