27

Co      -0.0258  -0.0468  0.0179
Cl      -1.0992  1.6120  -1.2143
Cl      1.1650  1.4499  1.3611
C       2.7222  -0.7316  -0.8325
C       2.1428  -1.8978  -0.1139
C       -2.5728  -1.2865  -0.4240
C       -2.4227  -1.1759  1.0469
N       1.5868  0.0715  -1.3565
N       1.0883  -1.4564  0.8516
N       -1.1653  -1.2274  -0.9403
N       -1.4871  -0.0555  1.2504
H       2.8103  -2.4395  0.5624
H       1.7682  -2.6098  -0.8469
H       -3.2089  -0.4800  -0.7647
H       -2.9234  -2.2443  -0.8498
H       1.7269  1.0788  -1.2445
H       1.1620  -0.0899  -2.2642
H       -1.8674  0.8581  1.0148
H       -1.0898  0.0275  2.1701
H       -2.0253  -2.1107  1.4276
H       -3.3234  -0.9342  1.6033
H       0.5349  -2.2298  1.1562
H       1.3750  -0.8834  1.6514
H       3.2518  -0.9673  -1.7607
H       3.3954  -0.1887  -0.1766
H       -0.6606  -2.1063  -0.9327
H       -1.1168  -0.8238  -1.8623
