27

Co      -0.0063  -0.0291  -0.0055
Cl      -1.1063  1.6410  -1.2232
Cl      1.1717  1.4567  1.3827
C       2.7041  -0.7050  -0.8020
C       2.1187  -1.9297  -0.1320
C       -2.5193  -1.2736  -0.4373
C       -2.4295  -1.1889  1.0739
N       1.5306  0.0309  -1.3549
N       1.0785  -1.4530  0.8353
N       -1.1181  -1.3133  -0.9798
N       -1.5313  -0.0411  1.3439
H       2.8678  -2.5224  0.3761
H       1.6347  -2.5636  -0.8649
H       -2.9836  -0.3823  -0.8291
H       -3.0780  -2.1339  -0.7741
H       1.7278  1.0123  -1.4601
H       1.2833  -0.3061  -2.2657
H       -2.0026  0.8341  1.1681
H       -1.2106  0.0008  2.2980
H       -1.9916  -2.0841  1.4993
H       -3.4025  -1.0571  1.5191
H       0.5700  -2.2313  1.2100
H       1.5282  -0.9996  1.6088
H       3.4154  -0.9676  -1.5697
H       3.1934  -0.0655  -0.0855
H       -0.7707  -2.2561  -0.9527
H       -1.1428  -1.0296  -1.9400
