27

Co      0.0517  0.0158  0.0331
Cl      -1.0879  1.5906  -1.2201
Cl      1.0855  1.3280  1.2759
C       2.5800  -0.7090  -0.8568
C       2.0593  -1.7997  -0.0816
C       -2.4600  -1.2809  -0.4164
C       -2.4180  -1.1092  1.0653
N       1.5611  0.0970  -1.3188
N       1.0732  -1.4834  0.8974
N       -1.1152  -1.2734  -1.0675
N       -1.5163  -0.0419  1.3984
H       3.0463  -2.2123  0.2331
H       1.5551  -2.5518  -0.6761
H       -2.9748  -0.5054  -0.9680
H       -3.0459  -2.2135  -0.4615
H       1.9187  1.0352  -1.4613
H       1.4480  -0.2229  -2.2784
H       -2.0270  0.8219  1.3144
H       -1.3042  -0.1018  2.3845
H       -2.0050  -1.9833  1.5569
H       -3.4631  -1.0229  1.3854
H       0.6508  -2.3679  1.1649
H       1.6249  -1.2603  1.7373
H       3.3256  -1.2552  -1.5049
H       3.1296  -0.0452  -0.2189
H       -0.9247  -2.2677  -1.2436
H       -1.2968  -0.9068  -1.9975
