27

Co      0.0075  0.0739  0.0131
Cl      -1.0940  1.6140  -1.2274
Cl      1.1223  1.3761  1.3127
C       2.6764  -0.7269  -0.8285
C       2.1662  -1.9579  -0.0918
C       -2.5163  -1.3133  -0.4458
C       -2.4329  -1.1595  1.0635
N       1.5274  0.0813  -1.3292
N       1.1159  -1.5595  0.8958
N       -1.1399  -1.3550  -1.0457
N       -1.5119  -0.0357  1.4152
H       2.9857  -2.4678  0.3885
H       1.7165  -2.6507  -0.7861
H       -3.0171  -0.4645  -0.8799
H       -3.0733  -2.1994  -0.7011
H       1.7926  1.0420  -1.4500
H       1.2212  -0.2381  -2.2294
H       -1.9794  0.8536  1.3993
H       -1.1347  -0.1450  2.3404
H       -2.0409  -2.0592  1.5183
H       -3.4232  -1.0007  1.4691
H       0.5728  -2.3654  1.1554
H       1.5342  -1.1951  1.7335
H       3.3247  -1.0239  -1.6398
H       3.2447  -0.1019  -0.1605
H       -0.7743  -2.2854  -1.0229
H       -1.1966  -1.0688  -2.0037
