27

Co      0.0025  0.0030  -0.0084
Cl      -1.0735  1.6009  -1.2015
Cl      1.1397  1.4167  1.3517
C       2.5487  -0.6951  -0.8164
C       2.0517  -1.8281  -0.1094
C       -2.4344  -1.2481  -0.4346
C       -2.3609  -1.1172  1.0487
N       1.5062  0.0549  -1.3248
N       1.0508  -1.5296  0.8667
N       -1.0858  -1.3692  -1.0529
N       -1.4841  -0.0324  1.3806
H       3.0434  -2.2414  0.2079
H       1.5743  -2.5675  -0.7307
H       -2.8553  -0.4063  -0.9712
H       -3.1171  -2.1164  -0.5034
H       1.8421  0.9976  -1.5054
H       1.4202  -0.3086  -2.2782
H       -2.0122  0.8252  1.3304
H       -1.2286  -0.0989  2.3508
H       -1.9011  -1.9914  1.4958
H       -3.3940  -1.0801  1.4069
H       0.6562  -2.4172  1.1642
H       1.5995  -1.2814  1.6952
H       3.3636  -1.1609  -1.4295
H       3.0036  -0.0093  -0.1212
H       -0.9070  -2.3716  -1.0539
H       -1.2208  -1.1685  -2.0387
