27

Co      0.0051  0.0538  0.0214
Cl      -1.0695  1.5715  -1.2020
Cl      1.0956  1.3418  1.2774
C       2.6471  -0.7144  -0.8712
C       2.1596  -1.9415  -0.0484
C       -2.5000  -1.2978  -0.4640
C       -2.3887  -1.1346  1.0607
N       1.4692  0.1269  -1.2508
N       1.0464  -1.5093  0.8566
N       -1.1080  -1.2838  -1.0216
N       -1.4393  -0.0164  1.3467
H       3.0692  -2.3830  0.3635
H       1.6780  -2.6854  -0.6720
H       -2.9510  -0.4596  -0.9762
H       -3.1153  -2.1862  -0.6006
H       1.8043  1.0747  -1.3759
H       1.3421  -0.1657  -2.2165
H       -1.9801  0.8407  1.3373
H       -1.1530  -0.0937  2.3048
H       -1.9437  -1.9970  1.5493
H       -3.3899  -1.0150  1.4627
H       0.5688  -2.3380  1.1736
H       1.5903  -1.2491  1.6856
H       3.3069  -1.1444  -1.6289
H       3.2191  -0.0268  -0.2637
H       -0.8505  -2.2537  -1.0250
H       -1.2122  -1.0532  -1.9999
