27

Co      0.0556  0.0567  0.0386
Cl      -1.0747  1.5705  -1.1909
Cl      1.1164  1.3694  1.3087
C       2.6722  -0.7008  -0.8468
C       2.1225  -1.9235  -0.0883
C       -2.5495  -1.2993  -0.4758
C       -2.3853  -1.1587  1.0505
N       1.4602  0.0657  -1.2487
N       1.0231  -1.4008  0.7897
N       -1.1721  -1.4011  -1.0740
N       -1.4793  -0.0076  1.3432
H       2.9638  -2.4435  0.3494
H       1.6050  -2.6084  -0.7489
H       -2.9325  -0.4046  -0.9570
H       -3.2678  -2.1298  -0.6010
H       1.7679  1.0090  -1.5345
H       1.2807  -0.3703  -2.1531
H       -2.0379  0.8336  1.2504
H       -1.2575  -0.0263  2.3296
H       -1.8891  -2.0167  1.5028
H       -3.3808  -1.0977  1.4847
H       0.4781  -2.1843  1.1064
H       1.5873  -1.1709  1.6176
H       3.3835  -1.0834  -1.5761
H       3.1793  0.0001  -0.1935
H       -0.9907  -2.4023  -1.0975
H       -1.2761  -1.1618  -2.0499
