27

Co      0.0439  -0.0108  0.0331
Cl      -1.1067  1.6406  -1.2464
Cl      1.1169  1.3954  1.3094
C       2.6467  -0.7136  -0.8593
C       2.1385  -1.9142  -0.0640
C       -2.5140  -1.3212  -0.4359
C       -2.4358  -1.1379  1.0685
N       1.4962  0.1150  -1.2974
N       1.0302  -1.5067  0.8596
N       -1.1255  -1.2950  -1.0197
N       -1.4563  -0.0555  1.3518
H       2.9421  -2.3687  0.4885
H       1.7327  -2.6651  -0.7330
H       -3.0583  -0.5117  -0.8840
H       -3.0085  -2.2490  -0.6888
H       1.7342  1.0880  -1.3240
H       1.1852  -0.1217  -2.2223
H       -1.8799  0.8474  1.2364
H       -1.1347  -0.0876  2.2988
H       -2.0984  -2.0409  1.5599
H       -3.4102  -0.8954  1.4698
H       0.4568  -2.3099  1.0733
H       1.4144  -1.1682  1.7317
H       3.2235  -1.0585  -1.7110
H       3.2879  -0.0959  -0.2467
H       -0.7727  -2.2267  -1.1087
H       -1.1912  -0.9044  -1.9450
