27

Co      0.0463  -0.0074  0.0248
Cl      -1.1145  1.6441  -1.2328
Cl      1.1157  1.3797  1.3113
C       2.6517  -0.6892  -0.8620
C       2.1152  -1.9153  -0.0656
C       -2.5025  -1.2715  -0.4561
C       -2.3945  -1.1629  1.0784
N       1.4959  0.1265  -1.3249
N       1.0488  -1.5165  0.9106
N       -1.1171  -1.3522  -1.0458
N       -1.5073  0.0030  1.3688
H       3.0158  -2.4424  0.2715
H       1.5629  -2.5803  -0.7236
H       -2.8735  -0.3609  -0.9246
H       -3.2091  -2.0938  -0.6342
H       1.7980  1.0817  -1.4625
H       1.3924  -0.1999  -2.2860
H       -2.0618  0.8413  1.2375
H       -1.2823  0.0175  2.3575
H       -1.8985  -2.0139  1.5432
H       -3.4104  -1.1144  1.4760
H       0.5682  -2.3513  1.2091
H       1.6054  -1.2784  1.7419
H       3.3692  -1.1391  -1.5641
H       3.1733  0.0146  -0.2307
H       -0.9274  -2.3518  -1.0928
H       -1.2197  -1.0865  -2.0129
