27

Co      0.0063  0.0267  0.0025
Cl      -1.0531  1.5695  -1.1914
Cl      1.1228  1.3969  1.3247
C       2.5854  -0.6767  -0.8416
C       2.1059  -1.9297  -0.0569
C       -2.4828  -1.3090  -0.4768
C       -2.3592  -1.1094  1.0475
N       1.4039  0.1184  -1.2711
N       0.9993  -1.5176  0.8634
N       -1.0984  -1.3329  -1.0476
N       -1.3735  -0.0256  1.3285
H       3.0194  -2.3874  0.3338
H       1.6183  -2.6508  -0.6994
H       -2.9236  -0.4727  -1.0061
H       -3.1231  -2.1929  -0.5807
H       1.7118  1.0687  -1.4367
H       1.2825  -0.2233  -2.2237
H       -1.8883  0.8490  1.3518
H       -1.0658  -0.1310  2.2761
H       -1.9503  -1.9775  1.5499
H       -3.3528  -0.9503  1.4442
H       0.5191  -2.3437  1.1737
H       1.5430  -1.2656  1.6960
H       3.2998  -1.0699  -1.5647
H       3.0902  0.0300  -0.1996
H       -0.8589  -2.3085  -1.0399
H       -1.2039  -1.1186  -2.0308
