27

Co      -0.0082  -0.0578  -0.0068
Cl      -1.1138  1.6693  -1.2521
Cl      1.1882  1.4988  1.4004
C       2.7347  -0.6919  -0.8644
C       2.1628  -1.9941  -0.1182
C       -2.5247  -1.3343  -0.4378
C       -2.4639  -1.1468  1.0861
N       1.4929  0.0654  -1.3201
N       1.0100  -1.4759  0.8807
N       -1.1211  -1.2979  -1.0250
N       -1.4641  -0.0756  1.3551
H       2.9000  -2.5196  0.4744
H       1.6999  -2.6964  -0.7968
H       -3.0726  -0.5249  -0.8966
H       -3.0054  -2.2680  -0.7005
H       1.6534  1.0610  -1.3382
H       1.2154  -0.1874  -2.2506
H       -1.8754  0.8355  1.2279
H       -1.1233  -0.0885  2.3026
H       -2.1367  -2.0543  1.5724
H       -3.4305  -0.8922  1.4875
H       0.4796  -2.2480  1.2370
H       1.4568  -1.0346  1.6660
H       3.4395  -0.8500  -1.6769
H       3.2046  -0.0602  -0.1221
H       -0.7616  -2.2339  -1.1298
H       -1.1896  -0.8964  -1.9450
