27

Co      -0.0067  -0.0241  -0.0196
Cl      -1.0807  1.6060  -1.2092
Cl      1.2026  1.5271  1.4223
C       2.6994  -0.7305  -0.8508
C       2.1477  -1.9272  -0.0966
C       -2.5379  -1.3208  -0.4314
C       -2.4712  -1.1805  1.0782
N       1.5337  0.0546  -1.3538
N       0.9918  -1.4856  0.7712
N       -1.1434  -1.3207  -0.9909
N       -1.5136  -0.0746  1.3536
H       2.9104  -2.3915  0.5244
H       1.7799  -2.6725  -0.7892
H       -3.0445  -0.4749  -0.8595
H       -3.0595  -2.2189  -0.7328
H       1.7577  1.0332  -1.4023
H       1.2729  -0.2164  -2.2803
H       -1.9533  0.8170  1.2346
H       -1.1713  -0.0907  2.2973
H       -2.1112  -2.0791  1.5554
H       -3.4470  -0.9675  1.4809
H       0.4262  -2.2820  1.0113
H       1.3553  -1.1113  1.6341
H       3.3381  -1.0496  -1.6554
H       3.2680  -0.0873  -0.1981
H       -0.7767  -2.2549  -1.0054
H       -1.1955  -1.0133  -1.9451
