27

Co      0.0141  -0.0049  -0.0262
Cl      -1.0859  1.6054  -1.2089
Cl      1.1547  1.4389  1.3598
C       2.6306  -0.7089  -0.8033
C       2.1397  -1.9565  -0.0950
C       -2.5401  -1.2993  -0.4324
C       -2.4402  -1.1742  1.0672
N       1.4535  0.0730  -1.2724
N       1.0764  -1.4878  0.8403
N       -1.1214  -1.2393  -0.9384
N       -1.4628  -0.0774  1.2759
H       2.9417  -2.4390  0.4428
H       1.7193  -2.6798  -0.7812
H       -3.0767  -0.4682  -0.8533
H       -3.0055  -2.2199  -0.7549
H       1.6872  1.0504  -1.3207
H       1.1832  -0.1896  -2.1997
H       -1.9115  0.8140  1.1370
H       -1.1160  -0.0559  2.2150
H       -2.0634  -2.0810  1.5206
H       -3.3916  -0.9462  1.5254
H       0.5604  -2.2617  1.2138
H       1.5110  -1.0241  1.6196
H       3.2834  -0.9436  -1.6295
H       3.1712  -0.0874  -0.1117
H       -0.7279  -2.1596  -0.8950
H       -1.1576  -0.9734  -1.9067
