27

Co      -0.0746  -0.0632  -0.0060
Cl      -1.1050  1.6562  -1.2258
Cl      1.1919  1.4865  1.4003
C       2.6997  -0.7051  -0.7935
C       2.1336  -1.9408  -0.1343
C       -2.5255  -1.2744  -0.4527
C       -2.3791  -1.1649  1.0440
N       1.5149  0.0295  -1.3299
N       1.0985  -1.4789  0.8486
N       -1.1058  -1.2592  -0.9285
N       -1.4288  -0.0514  1.2442
H       2.8938  -2.5331  0.3628
H       1.6513  -2.5794  -0.8663
H       -3.0363  -0.4245  -0.8710
H       -3.0184  -2.1797  -0.7732
H       1.6951  1.0232  -1.3511
H       1.3115  -0.2426  -2.2727
H       -1.8861  0.8382  1.1118
H       -1.0599  -0.0178  2.1778
H       -1.9382  -2.0685  1.4532
H       -3.3092  -0.9888  1.5598
H       0.6732  -2.2748  1.3075
H       1.5698  -0.9502  1.5758
H       3.4036  -0.9528  -1.5734
H       3.1915  -0.0708  -0.0762
H       -0.7130  -2.1850  -0.8260
H       -1.0863  -1.0293  -1.9061
