27

Co      0.0103  -0.0238  -0.0365
Cl      -1.1237  1.6503  -1.2355
Cl      1.1916  1.4838  1.4005
C       2.7659  -0.7172  -0.8304
C       2.1867  -2.0146  -0.1480
C       -2.5788  -1.2979  -0.4034
C       -2.5119  -1.2175  1.0987
N       1.5556  0.0498  -1.3543
N       1.1104  -1.4849  0.9158
N       -1.1601  -1.2637  -0.9635
N       -1.5922  -0.0804  1.3453
H       2.8409  -2.5772  0.5323
H       1.7642  -2.7021  -0.8702
H       -3.1748  -0.4515  -0.7300
H       -2.9617  -2.2216  -0.8755
H       1.6720  1.0610  -1.2971
H       1.1086  -0.1560  -2.2438
H       -1.9805  0.8271  1.0833
H       -1.2023  0.0122  2.2769
H       -2.1405  -2.1541  1.4914
H       -3.4474  -0.9906  1.5851
H       0.5307  -2.2158  1.2910
H       1.4480  -0.8735  1.6663
H       3.4184  -0.7390  -1.7334
H       3.2738  -0.1691  -0.0403
H       -0.6692  -2.1525  -0.9842
H       -1.1571  -0.8541  -1.8832
