27

Co      -0.0311  -0.0621  0.0096
Cl      -1.1114  1.6703  -1.2462
Cl      1.1927  1.5198  1.4025
C       2.6930  -0.7301  -0.8532
C       2.1629  -1.9313  -0.0898
C       -2.5477  -1.3181  -0.4417
C       -2.4330  -1.1667  1.0530
N       1.5227  0.0646  -1.3262
N       1.0066  -1.5220  0.7966
N       -1.1227  -1.2714  -0.9146
N       -1.4204  -0.0951  1.2535
H       2.9406  -2.3881  0.5150
H       1.7975  -2.6870  -0.7789
H       -3.0832  -0.5026  -0.8920
H       -3.0083  -2.2537  -0.7452
H       1.7308  1.0535  -1.2990
H       1.2812  -0.1428  -2.2772
H       -1.8443  0.8069  1.1281
H       -1.0707  -0.0869  2.1938
H       -2.0747  -2.0772  1.5132
H       -3.3662  -0.9050  1.5255
H       0.4909  -2.3403  1.0622
H       1.3815  -1.1288  1.6480
H       3.3037  -1.0578  -1.6798
H       3.2907  -0.0960  -0.2189
H       -0.7279  -2.1933  -0.8667
H       -1.1189  -1.0024  -1.8819
