27

Co      0.0463  -0.0111  0.0281
Cl      -1.0918  1.6296  -1.2324
Cl      1.0994  1.3728  1.3006
C       2.5451  -0.6993  -0.8052
C       2.0610  -1.8318  -0.0509
C       -2.4377  -1.2795  -0.4393
C       -2.3786  -1.1235  1.0611
N       1.4886  0.1250  -1.3579
N       1.0475  -1.5559  0.8656
N       -1.0830  -1.3580  -1.0565
N       -1.4663  -0.0091  1.4096
H       2.9191  -2.3129  0.3878
H       1.6509  -2.5335  -0.7635
H       -2.9079  -0.4132  -0.8581
H       -3.0336  -2.1425  -0.6994
H       1.7567  1.0838  -1.4317
H       1.2107  -0.1665  -2.2756
H       -1.9047  0.8867  1.3319
H       -1.1273  -0.0804  2.3450
H       -2.0145  -2.0140  1.5534
H       -3.3871  -0.9473  1.4197
H       0.4875  -2.3941  1.0086
H       1.3977  -1.2613  1.7766
H       3.1192  -1.1800  -1.6068
H       3.2188  -0.0645  -0.2427
H       -0.7608  -2.2995  -1.0928
H       -1.1478  -1.0190  -1.9981
