27

Co      0.0000  -0.0031  0.0194
Cl      0.0002  -2.3044  -0.2196
Cl      -0.0001  2.3065  0.2177
N       -1.4637  0.1422  -1.3296
N       -1.4310  -0.1444  1.3111
N       1.4637  0.1421  -1.3295
N       1.4310  -0.1439  1.3111
C       -2.7632  0.4115  -0.6466
C       -2.7389  -0.4005  0.6282
C       2.7633  0.4114  -0.6467
C       2.7389  -0.4001  0.6284
H       -1.2769  0.8727  -1.9872
H       -2.8238  1.4672  -0.4438
H       -3.5929  0.1310  -1.2740
H       -3.5561  -0.1483  1.2843
H       -2.7856  -1.4542  0.4090
H       -1.4825  0.7117  1.8297
H       -1.2589  -0.8916  1.9561
H       1.5154  -0.7256  -1.8290
H       1.2771  0.8724  -1.9875
H       3.5929  0.1306  -1.2741
H       2.8239  1.4672  -0.4444
H       2.7859  -1.4539  0.4097
H       3.5560  -0.1475  1.2845
H       1.2588  -0.8909  1.9565
H       1.4822  0.7124  1.8294
H       -1.5154  -0.7263  -1.8294
