27

Co      0.0370  -0.0031  0.0194
Cl      -0.0030  -2.2822  -0.2187
Cl      -0.0034  2.2843  0.2168
N       -1.4546  0.1421  -1.3399
N       -1.4219  -0.1442  1.3214
N       1.4211  0.1368  -1.3175
N       1.3883  -0.1385  1.2992
C       -2.7623  0.4081  -0.6506
C       -2.7380  -0.3972  0.6322
C       2.7346  0.4071  -0.6511
C       2.7102  -0.3958  0.6327
H       -1.3951  0.8657  -2.0433
H       -2.7893  1.4682  -0.4602
H       -3.5964  0.1535  -1.2834
H       -3.5573  -0.1709  1.2961
H       -2.7511  -1.4552  0.4255
H       -1.6017  0.6841  1.8766
H       -1.3771  -0.8846  2.0121
H       1.5926  -0.6996  -1.8581
H       1.3347  0.8642  -2.0101
H       3.5573  0.1505  -1.2949
H       2.7635  1.4673  -0.4622
H       2.7255  -1.4539  0.4275
H       3.5204  -0.1674  1.3053
H       1.3165  -0.8826  1.9791
H       1.5594  0.6864  1.8585
H       -1.6369  -0.6988  -1.8763
