27

Co      0.0000  -0.0031  0.0194
Cl      0.0002  -2.2626  -0.2161
Cl      -0.0001  2.2647  0.2141
N       -1.4669  0.1414  -1.3329
N       -1.4342  -0.1436  1.3144
N       1.4669  0.1413  -1.3328
N       1.4341  -0.1431  1.3144
C       -2.7640  0.4123  -0.6466
C       -2.7397  -0.4014  0.6282
C       2.7640  0.4123  -0.6467
C       2.7396  -0.4010  0.6284
H       -1.2810  0.8719  -1.9914
H       -2.8221  1.4681  -0.4421
H       -3.5962  0.1352  -1.2706
H       -3.5593  -0.1525  1.2810
H       -2.7839  -1.4551  0.4073
H       -1.4882  0.7124  1.8322
H       -1.2630  -0.8909  1.9603
H       1.5212  -0.7263  -1.8315
H       1.2812  0.8716  -1.9916
H       3.5961  0.1348  -1.2707
H       2.8222  1.4681  -0.4427
H       2.7842  -1.4547  0.4080
H       3.5593  -0.1516  1.2811
H       1.2629  -0.8901  1.9606
H       1.4879  0.7131  1.8319
H       -1.5212  -0.7271  -1.8319
