27

Co      0.0000  0.0000  0.0000
Cl      0.0002  -2.2920  -0.2141
Cl      -0.0001  2.2921  0.2142
N       -1.4860  0.1474  -1.3435
N       -1.4860  -0.1476  1.3434
N       1.4861  0.1474  -1.3434
N       1.4860  -0.1471  1.3434
C       -2.8127  0.4043  -0.6169
C       -2.8129  -0.4036  0.6169
C       2.8128  0.4043  -0.6170
C       2.8129  -0.4032  0.6171
H       -1.3246  0.8974  -1.9887
H       -2.8961  1.4562  -0.4102
H       -3.6416  0.1004  -1.2403
H       -3.6416  -0.0993  1.2404
H       -2.8967  -1.4554  0.4102
H       -1.5559  0.7058  1.8664
H       -1.3251  -0.8979  1.9882
H       1.5562  -0.7064  -1.8657
H       1.3248  0.8971  -1.9889
H       3.6416  0.1000  -1.2390
H       2.8976  1.4562  -0.4109
H       2.8985  -1.4551  0.4109
H       3.6415  -0.0985  1.2391
H       1.3250  -0.8971  1.9886
H       1.5557  0.7065  1.8660
H       -1.5562  -0.7061  -1.8661
