27

Co      0.0000  0.0244  0.0017
Cl      0.0002  -2.3001  -0.2194
Cl      -0.0001  2.2665  0.2161
N       -1.4109  0.1357  -1.3071
N       -1.4502  -0.1409  1.3455
N       1.4502  0.1356  -1.3438
N       1.4109  -0.1404  1.3087
C       -2.7216  0.4011  -0.6285
C       -2.7464  -0.4078  0.6366
C       2.7462  0.4084  -0.6384
C       2.7218  -0.4000  0.6270
H       -1.3132  0.8714  -1.9828
H       -2.7763  1.4534  -0.4081
H       -3.4911  0.1599  -1.3501
H       -3.5353  -0.1573  1.3289
H       -2.8015  -1.4600  0.4202
H       -1.5571  0.6978  1.8888
H       -1.3442  -0.8958  1.9985
H       1.5439  -0.7304  -1.8443
H       1.3625  0.8613  -2.0345
H       3.5353  0.1547  -1.3306
H       2.8009  1.4608  -0.4259
H       2.7772  -1.4523  0.4037
H       3.4910  -0.1614  1.3487
H       1.2950  -0.9048  1.9473
H       1.5077  0.6912  1.8663
H       -1.4948  -0.7228  -1.8226
