27

Co      -0.0245  0.0000  0.0000
Cl      0.0035  -2.3116  -0.2168
Cl      0.0031  2.3117  0.2169
N       -1.4926  0.1509  -1.3611
N       -1.4926  -0.1510  1.3610
N       1.5057  0.1492  -1.3332
N       1.5056  -0.1489  1.3333
C       -2.7673  0.4074  -0.6380
C       -2.7675  -0.4067  0.6380
C       2.7951  0.4106  -0.6332
C       2.7953  -0.4095  0.6333
H       -1.2003  0.9091  -1.9552
H       -2.8484  1.4577  -0.4166
H       -3.6092  0.1163  -1.2468
H       -3.6115  -0.1152  1.2447
H       -2.8491  -1.4570  0.4166
H       -1.4227  0.7309  1.8477
H       -1.2008  -0.9096  1.9547
H       1.4354  -0.7413  -1.8045
H       1.2202  0.8941  -1.9456
H       3.6255  0.1208  -1.2584
H       2.8812  1.4610  -0.4091
H       2.8821  -1.4599  0.4091
H       3.6255  -0.1192  1.2586
H       1.2203  -0.8941  1.9453
H       1.4349  0.7414  1.8049
H       -1.4207  -0.7312  -1.8474
