27

Co      0.0000  0.0244  0.0017
Cl      0.0002  -2.3240  -0.2165
Cl      -0.0001  2.2904  0.2133
N       -1.4397  0.1603  -1.3433
N       -1.4397  -0.1655  1.3449
N       1.4397  0.1584  -1.3433
N       1.4397  -0.1631  1.3449
C       -2.7527  0.3898  -0.6590
C       -2.7529  -0.3891  0.6573
C       2.7528  0.3898  -0.6591
C       2.7529  -0.3887  0.6575
H       -1.3109  0.9012  -2.0078
H       -2.7980  1.4532  -0.4925
H       -3.6211  0.0945  -1.2309
H       -3.6188  -0.0968  1.2316
H       -2.7987  -1.4524  0.4875
H       -1.5663  0.6495  1.9250
H       -1.2929  -0.9354  1.9720
H       1.5572  -0.6821  -1.8787
H       1.3111  0.8990  -2.0099
H       3.6211  0.0960  -1.2310
H       2.7963  1.4550  -0.4913
H       2.7971  -1.4539  0.4863
H       3.6210  -0.0978  1.2295
H       1.2928  -0.9327  1.9742
H       1.5702  0.6502  1.9228
H       -1.5554  -0.6818  -1.8810
