27

Co      0.0370  0.0213  0.0211
Cl      -0.0030  -2.3027  -0.2204
Cl      -0.0034  2.2711  0.2151
N       -1.4597  0.1421  -1.3561
N       -1.4662  -0.1493  1.3761
N       1.4654  0.1368  -1.3706
N       1.3934  -0.1436  1.3171
C       -2.7454  0.4080  -0.6447
C       -2.7456  -0.4044  0.6344
C       2.7422  0.4143  -0.6550
C       2.6933  -0.3956  0.6252
H       -1.2943  0.8675  -2.0230
H       -2.7930  1.4637  -0.4369
H       -3.5884  0.1423  -1.2607
H       -3.5957  -0.1581  1.2497
H       -2.7794  -1.4580  0.4142
H       -1.5397  0.6948  1.9123
H       -1.3069  -0.9103  2.0081
H       1.5148  -0.7423  -1.8500
H       1.2830  0.8562  -2.0414
H       3.5934  0.1344  -1.2525
H       2.7918  1.4701  -0.4560
H       2.7292  -1.4493  0.3991
H       3.5123  -0.1595  1.2808
H       1.1971  -0.9181  1.9235
H       1.4460  0.6897  1.8721
H       -1.5101  -0.7341  -1.8461
