27

Co      0.0125  0.0000  0.0000
Cl      0.0002  -2.2673  -0.2151
Cl      -0.0001  2.2673  0.2152
N       -1.4715  0.1482  -1.3774
N       -1.4715  -0.1484  1.3773
N       1.4511  0.1413  -1.3273
N       1.4510  -0.1410  1.3273
C       -2.7493  0.4049  -0.6420
C       -2.7495  -0.4042  0.6420
C       2.7494  0.4071  -0.6376
C       2.7495  -0.4060  0.6377
H       -1.3066  0.8987  -2.0180
H       -2.7909  1.4596  -0.4305
H       -3.5999  0.1456  -1.2512
H       -3.5999  -0.1445  1.2513
H       -2.7915  -1.4589  0.4305
H       -1.5325  0.7067  1.8988
H       -1.3070  -0.8992  2.0176
H       1.5032  -0.7187  -1.8378
H       1.2658  0.8824  -1.9750
H       3.5771  0.1475  -1.2741
H       2.7978  1.4619  -0.4243
H       2.7987  -1.4608  0.4244
H       3.5770  -0.1460  1.2742
H       1.2660  -0.8825  1.9747
H       1.5027  0.7188  1.8382
H       -1.5328  -0.7071  -1.8985
