27

Co      0.0000  0.0244  0.0017
Cl      0.0002  -2.3063  -0.2176
Cl      -0.0001  2.2727  0.2143
N       -1.4599  0.1493  -1.3388
N       -1.4599  -0.1545  1.3404
N       1.4599  0.1492  -1.3387
N       1.4599  -0.1540  1.3404
C       -2.7751  0.3856  -0.6475
C       -2.7753  -0.3849  0.6458
C       2.7752  0.3856  -0.6476
C       2.7753  -0.3845  0.6460
H       -1.3777  0.8791  -2.0319
H       -2.7360  1.4471  -0.4421
H       -3.6746  0.1772  -1.2147
H       -3.6723  -0.1795  1.2154
H       -2.7366  -1.4464  0.4371
H       -1.5413  0.6814  1.8884
H       -1.3596  -0.9133  1.9961
H       1.5303  -0.7140  -1.8439
H       1.3779  0.8788  -2.0322
H       3.6746  0.1769  -1.2148
H       2.7361  1.4471  -0.4428
H       2.7369  -1.4460  0.4377
H       3.6745  -0.1787  1.2133
H       1.3595  -0.9125  1.9965
H       1.5433  0.6821  1.8881
H       -1.5303  -0.7137  -1.8443
