27

Co      -0.0370  0.0031  -0.0194
Cl      0.0035  -2.2941  -0.2149
Cl      0.0031  2.2921  0.2170
N       -1.4846  0.1496  -1.3647
N       -1.4780  -0.1477  1.3462
N       1.4789  0.1547  -1.3501
N       1.5508  -0.1524  1.4054
C       -2.7318  0.3894  -0.6254
C       -2.7320  -0.3915  0.6339
C       2.7351  0.3830  -0.6153
C       2.7843  -0.3995  0.6436
H       -1.3256  0.9130  -1.9952
H       -2.7917  1.4445  -0.4197
H       -3.5892  0.1126  -1.2175
H       -3.5818  -0.0980  1.2270
H       -2.8067  -1.4472  0.4373
H       -1.5240  0.7018  1.8750
H       -1.2954  -0.9050  1.9738
H       1.5358  -0.6876  -1.8921
H       1.3373  0.9238  -1.9773
H       3.5841  0.1197  -1.2259
H       2.7931  1.4367  -0.4018
H       2.8574  -1.4552  0.4538
H       3.6650  -0.0948  1.1962
H       1.4050  -0.8956  2.0592
H       1.6171  0.7084  1.9146
H       -1.5407  -0.6953  -1.8967
