27

Co      0.0370  -0.0031  0.0194
Cl      -0.0030  -2.3061  -0.2159
Cl      -0.0034  2.3083  0.2139
N       -1.4622  0.1622  -1.3529
N       -1.4688  -0.1643  1.3712
N       1.4680  0.1550  -1.3673
N       1.3959  -0.1568  1.3121
C       -2.7643  0.3940  -0.6533
C       -2.7646  -0.3904  0.6446
C       2.7611  0.4003  -0.6635
C       2.7122  -0.3816  0.6354
H       -1.2895  0.9234  -1.9761
H       -2.8498  1.4516  -0.4687
H       -3.5918  0.0885  -1.2743
H       -3.5991  -0.1009  1.2651
H       -2.8361  -1.4460  0.4512
H       -1.5198  0.6793  1.9124
H       -1.3206  -0.9325  1.9965
H       1.5104  -0.6948  -1.8920
H       1.2782  0.9102  -1.9963
H       3.5968  0.0824  -1.2661
H       2.8467  1.4598  -0.4860
H       2.7841  -1.4391  0.4341
H       3.5158  -0.1042  1.2962
H       1.2109  -0.9384  1.9137
H       1.4280  0.6742  1.8703
H       -1.5037  -0.6866  -1.8900
