27

Co      0.0000  0.0031  -0.0194
Cl      0.0002  -2.2745  -0.2122
Cl      -0.0001  2.2725  0.2144
N       -1.4828  0.1526  -1.3632
N       -1.5155  -0.1507  1.3815
N       1.4828  0.1525  -1.3632
N       1.5155  -0.1502  1.3816
C       -2.7695  0.3989  -0.6330
C       -2.7943  -0.4084  0.6513
C       2.7696  0.3988  -0.6331
C       2.7943  -0.4079  0.6516
H       -1.3193  0.9156  -1.9919
H       -2.8109  1.4525  -0.4156
H       -3.6097  0.1489  -1.2614
H       -3.6465  -0.1294  1.2513
H       -2.8504  -1.4641  0.4503
H       -1.5718  0.7063  1.8979
H       -1.3381  -0.8977  2.0221
H       1.5393  -0.6936  -1.8972
H       1.3195  0.9153  -1.9921
H       3.6097  0.1485  -1.2616
H       2.8110  1.4526  -0.4162
H       2.8507  -1.4637  0.4510
H       3.6464  -0.1285  1.2515
H       1.3380  -0.8969  2.0225
H       1.5715  0.7070  1.8976
H       -1.5393  -0.6923  -1.8976
