27

Co      -0.0370  0.0031  -0.0194
Cl      0.0035  -2.3127  -0.2157
Cl      0.0031  2.3107  0.2179
N       -1.4622  0.1465  -1.3442
N       -1.4557  -0.1446  1.3257
N       1.4566  0.1516  -1.3296
N       1.5285  -0.1493  1.3848
C       -2.7810  0.4048  -0.6176
C       -2.7812  -0.4070  0.6262
C       2.7843  0.3984  -0.6076
C       2.8335  -0.4149  0.6359
H       -1.2209  0.8935  -1.9729
H       -2.8473  1.4581  -0.4109
H       -3.6582  0.0964  -1.1740
H       -3.6508  -0.0818  1.1835
H       -2.8623  -1.4622  0.4285
H       -1.4741  0.7248  1.8258
H       -1.1906  -0.8855  1.9516
H       1.4859  -0.7106  -1.8429
H       1.2326  0.9043  -1.9551
H       3.6531  0.1035  -1.1810
H       2.8502  1.4517  -0.3930
H       2.9144  -1.4702  0.4450
H       3.7340  -0.0787  1.1513
H       1.3002  -0.8761  2.0369
H       1.5672  0.7313  1.8654
H       -1.4907  -0.7182  -1.8476
