27

Co      0.0125  0.0213  0.0211
Cl      0.0002  -2.2776  -0.2140
Cl      -0.0001  2.2460  0.2087
N       -1.4207  0.1603  -1.3422
N       -1.4272  -0.1675  1.3622
N       1.4395  0.1515  -1.3289
N       1.3675  -0.1583  1.2753
C       -2.7806  0.3875  -0.6737
C       -2.7808  -0.3840  0.6634
C       2.8052  0.3971  -0.6791
C       2.7563  -0.3784  0.6493
H       -1.3209  0.8997  -2.0156
H       -2.7560  1.4505  -0.4855
H       -3.6564  0.1603  -1.2634
H       -3.6615  -0.1761  1.2547
H       -2.7423  -1.4463  0.4628
H       -1.5052  0.6589  1.9290
H       -1.3335  -0.9425  2.0006
H       1.4992  -0.7162  -1.8223
H       1.3292  0.8718  -2.0260
H       3.6778  0.1592  -1.2667
H       2.7856  1.4634  -0.4946
H       2.7230  -1.4427  0.4376
H       3.5968  -0.1843  1.2950
H       1.2433  -0.9337  1.9081
H       1.4303  0.6637  1.8444
H       -1.4778  -0.6982  -1.8628
