27

Co      0.0000  0.0000  0.0000
Cl      0.0002  -2.3036  -0.2148
Cl      -0.0001  2.3036  0.2149
N       -1.4044  0.1580  -1.2970
N       -1.4437  -0.1582  1.3338
N       1.4437  0.1561  -1.3338
N       1.4044  -0.1558  1.2970
C       -2.7428  0.3849  -0.6460
C       -2.7676  -0.3915  0.6558
C       2.7674  0.3922  -0.6560
C       2.7430  -0.3837  0.6462
H       -1.3355  0.9182  -1.9561
H       -2.8014  1.4458  -0.4693
H       -3.5398  0.1084  -1.3185
H       -3.5817  -0.1023  1.3013
H       -2.8266  -1.4525  0.4865
H       -1.6073  0.6642  1.9001
H       -1.3851  -0.9089  2.0072
H       1.6117  -0.6648  -1.8975
H       1.3848  0.9062  -2.0098
H       3.5839  0.1049  -1.2990
H       2.8242  1.4551  -0.4853
H       2.8005  -1.4466  0.4681
H       3.5397  -0.1083  1.3188
H       1.3359  -0.9161  1.9579
H       1.5621  0.6576  1.8758
H       -1.5608  -0.6572  -1.8777
