27

Co      0.0000  0.0000  0.0000
Cl      0.0002  -2.2699  -0.2132
Cl      -0.0001  2.2699  0.2133
N       -1.4906  0.1337  -1.3393
N       -1.4906  -0.1338  1.3392
N       1.4906  0.1336  -1.3392
N       1.4906  -0.1333  1.3392
C       -2.7864  0.4007  -0.6376
C       -2.7866  -0.4000  0.6375
C       2.7865  0.4007  -0.6377
C       2.7866  -0.3996  0.6378
H       -1.2876  0.9300  -1.9205
H       -2.8166  1.4554  -0.4239
H       -3.6262  0.1572  -1.2673
H       -3.6262  -0.1561  1.2674
H       -2.8172  -1.4547  0.4239
H       -1.5533  0.6798  1.9262
H       -1.2880  -0.9305  1.9200
H       1.5536  -0.6804  -1.9255
H       1.2877  0.9297  -1.9230
H       3.6262  0.1546  -1.2674
H       2.8167  1.4555  -0.4245
H       2.8175  -1.4544  0.4246
H       3.6261  -0.1530  1.2675
H       1.2901  -0.9298  1.9226
H       1.5531  0.6805  1.9259
H       -1.5536  -0.6801  -1.9259
