27

Co      0.0000  0.0000  0.0000
Cl      0.0002  -2.3072  -0.2148
Cl      -0.0001  2.3072  0.2149
N       -1.4107  0.1613  -1.3410
N       -1.4500  -0.1615  1.3777
N       1.4500  0.1594  -1.3777
N       1.4107  -0.1591  1.3409
C       -2.7629  0.3838  -0.6547
C       -2.7877  -0.3904  0.6645
C       2.7876  0.3911  -0.6647
C       2.7632  -0.3826  0.6549
H       -1.2651  0.9371  -1.9568
H       -2.7649  1.4389  -0.4368
H       -3.5890  0.1683  -1.3145
H       -3.6331  -0.1623  1.2950
H       -2.7901  -1.4470  0.4540
H       -1.4373  0.6979  1.8985
H       -1.3146  -0.9279  2.0078
H       1.4394  -0.6986  -1.8959
H       1.3143  0.9251  -2.0104
H       3.6331  0.1649  -1.2950
H       2.7877  1.4496  -0.4527
H       2.7640  -1.4411  0.4356
H       3.5889  -0.1682  1.3148
H       1.2654  -0.9350  1.9585
H       1.3898  0.6913  1.8742
H       -1.3885  -0.6909  -1.8761
