27

Co      0.0000  -0.0244  -0.0017
Cl      0.0002  -2.2948  -0.2151
Cl      -0.0001  2.3285  0.2185
N       -1.4942  0.1502  -1.3480
N       -1.4942  -0.1453  1.3463
N       1.4943  0.1501  -1.3480
N       1.4942  -0.1448  1.3463
C       -2.7812  0.4066  -0.6299
C       -2.7814  -0.4059  0.6315
C       2.7812  0.4065  -0.6300
C       2.7814  -0.4054  0.6318
H       -1.2736  0.9234  -1.9447
H       -2.8720  1.4545  -0.4003
H       -3.5689  0.1325  -1.3172
H       -3.5711  -0.1281  1.3168
H       -2.8727  -1.4538  0.4054
H       -1.4597  0.7396  1.8264
H       -1.2926  -0.8903  1.9796
H       1.4711  -0.7083  -1.8694
H       1.2738  0.9231  -1.9450
H       3.5689  0.1322  -1.3173
H       2.8721  1.4545  -0.4009
H       2.8730  -1.4534  0.4060
H       3.5688  -0.1272  1.3192
H       1.2925  -0.8895  1.9800
H       1.4572  0.7404  1.8261
H       -1.4712  -0.7080  -1.8698
