27

Co      0.0370  -0.0031  0.0194
Cl      -0.0030  -2.2626  -0.2161
Cl      -0.0034  2.2647  0.2141
N       -1.4640  0.1440  -1.3256
N       -1.4706  -0.1462  1.3439
N       1.4698  0.1387  -1.3401
N       1.3977  -0.1405  1.2849
C       -2.7656  0.4091  -0.6415
C       -2.7658  -0.4056  0.6329
C       2.7624  0.4155  -0.6518
C       2.7135  -0.3968  0.6236
H       -1.2867  0.8775  -1.9824
H       -2.8228  1.4649  -0.4328
H       -3.5936  0.1389  -1.2748
H       -3.6010  -0.1513  1.2655
H       -2.8091  -1.4592  0.4153
H       -1.5349  0.7153  1.8527
H       -1.3178  -0.8866  2.0028
H       1.5236  -0.7308  -1.8342
H       1.2754  0.8661  -2.0007
H       3.5987  0.1310  -1.2666
H       2.8215  1.4713  -0.4520
H       2.7590  -1.4505  0.4001
H       3.5176  -0.1528  1.2966
H       1.2081  -0.8944  1.9181
H       1.4412  0.7102  1.8125
H       -1.5188  -0.7226  -1.8303
