27

Co      -0.0370  -0.0244  -0.0017
Cl      0.0035  -2.2752  -0.2124
Cl      0.0031  2.3089  0.2159
N       -1.5032  0.1517  -1.3459
N       -1.4639  -0.1467  1.3073
N       1.4975  0.1568  -1.3313
N       1.5367  -0.1514  1.3664
C       -2.7996  0.4075  -0.6440
C       -2.7753  -0.3994  0.6359
C       2.8029  0.4011  -0.6340
C       2.8276  -0.4074  0.6455
H       -1.3111  0.9115  -1.9715
H       -2.8611  1.4622  -0.4399
H       -3.6327  0.1284  -1.2696
H       -3.5885  -0.1288  1.2911
H       -2.8372  -1.4541  0.4277
H       -1.4982  0.7160  1.8154
H       -1.2809  -0.8882  1.9548
H       1.5562  -0.6831  -1.8763
H       1.3227  0.9223  -1.9536
H       3.6276  0.1355  -1.2780
H       2.8625  1.4559  -0.4220
H       2.8879  -1.4621  0.4442
H       3.6717  -0.1257  1.2602
H       1.3905  -0.8789  2.0401
H       1.5913  0.7225  1.8550
H       -1.5610  -0.6917  -1.8809
