27

Co      0.0370  -0.0031  0.0194
Cl      -0.0030  -2.2644  -0.2123
Cl      -0.0034  2.2665  0.2104
N       -1.4654  0.1614  -1.3562
N       -1.4720  -0.1636  1.3745
N       1.4712  0.1542  -1.3706
N       1.3991  -0.1560  1.3154
C       -2.7651  0.3948  -0.6533
C       -2.7653  -0.3913  0.6446
C       2.7619  0.4012  -0.6635
C       2.7130  -0.3825  0.6354
H       -1.2936  0.9226  -1.9802
H       -2.8481  1.4524  -0.4671
H       -3.5950  0.0926  -1.2710
H       -3.6024  -0.1050  1.2617
H       -2.8344  -1.4468  0.4495
H       -1.5256  0.6800  1.9149
H       -1.3247  -0.9318  2.0006
H       1.5161  -0.6955  -1.8945
H       1.2823  0.9094  -2.0004
H       3.6001  0.0866  -1.2628
H       2.8450  1.4607  -0.4843
H       2.7825  -1.4400  0.4324
H       3.5190  -0.1083  1.2928
H       1.2149  -0.9377  1.9179
H       1.4338  0.6750  1.8727
H       -1.5095  -0.6873  -1.8924
