27

Co      0.0125  0.0000  0.0000
Cl      0.0002  -2.2840  -0.2122
Cl      -0.0001  2.2840  0.2123
N       -1.4347  0.1657  -1.3194
N       -1.4740  -0.1658  1.3561
N       1.4535  0.1569  -1.3061
N       1.4142  -0.1566  1.2693
C       -2.7606  0.3862  -0.6532
C       -2.7854  -0.3928  0.6630
C       2.7852  0.3958  -0.6585
C       2.7608  -0.3873  0.6488
H       -1.2993  0.9240  -1.9630
H       -2.8121  1.4495  -0.4833
H       -3.6157  0.0924  -1.2434
H       -3.6576  -0.0864  1.2262
H       -2.8373  -1.4562  0.5005
H       -1.6009  0.6680  1.9073
H       -1.3488  -0.9147  2.0140
H       1.5757  -0.6800  -1.8444
H       1.3076  0.8961  -1.9734
H       3.6371  0.0913  -1.2467
H       2.8417  1.4611  -0.4924
H       2.8180  -1.4526  0.4753
H       3.5928  -0.0946  1.2665
H       1.2587  -0.9059  1.9215
H       1.5261  0.6727  1.8226
H       -1.5543  -0.6610  -1.8849
