27

Co      0.0000  0.0031  -0.0194
Cl      0.0002  -2.2709  -0.2122
Cl      -0.0001  2.2689  0.2144
N       -1.4859  0.1504  -1.3413
N       -1.5186  -0.1484  1.3596
N       1.4859  0.1503  -1.3412
N       1.5186  -0.1479  1.3597
C       -2.7697  0.4047  -0.6264
C       -2.7944  -0.4143  0.6448
C       2.7697  0.4047  -0.6265
C       2.7944  -0.4138  0.6450
H       -1.2050  0.9102  -1.9391
H       -2.8437  1.4541  -0.3935
H       -3.6022  0.1321  -1.2543
H       -3.6413  -0.1126  1.2420
H       -2.8832  -1.4656  0.4283
H       -1.4522  0.7437  1.8289
H       -1.2239  -0.8923  1.9693
H       1.4174  -0.7310  -1.8282
H       1.2052  0.9099  -1.9393
H       3.6022  0.1317  -1.2545
H       2.8438  1.4541  -0.3941
H       2.8835  -1.4653  0.4289
H       3.6389  -0.1117  1.2444
H       1.2238  -0.8916  1.9697
H       1.4496  0.7444  1.8286
H       -1.4174  -0.7297  -1.8286
