27

Co      0.0000  -0.0244  -0.0017
Cl      0.0002  -2.2530  -0.2116
Cl      -0.0001  2.2867  0.2150
N       -1.5066  0.1497  -1.3514
N       -1.5066  -0.1448  1.3496
N       1.5066  0.1496  -1.3513
N       1.5066  -0.1443  1.3496
C       -2.7754  0.4271  -0.6369
C       -2.7757  -0.4264  0.6386
C       2.7755  0.4271  -0.6370
C       2.7757  -0.4260  0.6388
H       -1.1618  0.9070  -1.9324
H       -2.9128  1.4775  -0.4278
H       -3.5925  0.0878  -1.2570
H       -3.5948  -0.0834  1.2566
H       -2.9134  -1.4768  0.4328
H       -1.4917  0.7460  1.8157
H       -1.1807  -0.8739  1.9673
H       1.5032  -0.7147  -1.8587
H       1.1620  0.9067  -1.9327
H       3.5925  0.0875  -1.2572
H       2.9129  1.4775  -0.4284
H       2.9137  -1.4764  0.4335
H       3.5925  -0.0825  1.2590
H       1.1806  -0.8731  1.9677
H       1.4892  0.7467  1.8154
H       -1.5032  -0.7144  -1.8591
