27

Co      0.0370  0.0244  0.0017
Cl      -0.0030  -2.2841  -0.2167
Cl      -0.0034  2.2505  0.2135
N       -1.4446  0.1447  -1.3375
N       -1.4838  -0.1499  1.3759
N       1.4503  0.1395  -1.3519
N       1.4110  -0.1442  1.3168
C       -2.7532  0.3982  -0.6397
C       -2.7780  -0.4048  0.6478
C       2.7500  0.4045  -0.6500
C       2.7256  -0.3960  0.6386
H       -1.4010  0.8752  -2.0375
H       -2.7706  1.4572  -0.4401
H       -3.5827  0.1632  -1.2878
H       -3.6246  -0.1606  1.2689
H       -2.7958  -1.4639  0.4522
H       -1.6776  0.6691  1.9436
H       -1.4320  -0.8996  2.0532
H       1.6223  -0.7033  -1.8813
H       1.3897  0.8639  -2.0558
H       3.5877  0.1553  -1.2796
H       2.7694  1.4636  -0.4592
H       2.7457  -1.4551  0.4370
H       3.5435  -0.1620  1.2977
H       1.3222  -0.9074  1.9686
H       1.5862  0.6640  1.9034
H       -1.6176  -0.6941  -1.8775
