27

Co      -0.0125  0.0000  0.0000
Cl      0.0002  -2.2717  -0.2170
Cl      -0.0001  2.2718  0.2171
N       -1.5198  0.1302  -1.3151
N       -1.5198  -0.1303  1.3150
N       1.5403  0.1388  -1.3652
N       1.5403  -0.1385  1.3652
C       -2.7553  0.4287  -0.6134
C       -2.7555  -0.4280  0.6134
C       2.7553  0.4264  -0.6181
C       2.7555  -0.4253  0.6182
H       -1.1862  0.8523  -1.9425
H       -2.8853  1.4786  -0.3908
H       -3.5835  0.1008  -1.2219
H       -3.5857  -0.0997  1.2197
H       -2.8859  -1.4765  0.3908
H       -1.5202  0.7596  1.7764
H       -1.1866  -0.8528  1.9420
H       1.5459  -0.7488  -1.8379
H       1.2274  0.8698  -1.9841
H       3.6062  0.0963  -1.1992
H       2.8804  1.4731  -0.4001
H       2.8813  -1.4720  0.4002
H       3.6062  -0.0947  1.1994
H       1.2275  -0.8698  1.9838
H       1.5454  0.7489  1.8383
H       -1.5182  -0.7600  -1.7761
