27

Co      -0.0370  0.0031  -0.0194
Cl      0.0035  -2.2905  -0.2149
Cl      0.0031  2.2885  0.2170
N       -1.4782  0.1451  -1.3360
N       -1.4716  -0.1431  1.3175
N       1.4725  0.1502  -1.3214
N       1.5444  -0.1478  1.3767
C       -2.7277  0.4079  -0.6251
C       -2.7279  -0.4100  0.6337
C       2.7310  0.4014  -0.6151
C       2.7802  -0.4179  0.6434
H       -1.2681  0.8926  -1.9705
H       -2.8498  1.4629  -0.4368
H       -3.5503  0.0734  -1.2393
H       -3.5429  -0.0589  1.2488
H       -2.8647  -1.4657  0.4544
H       -1.5735  0.7025  1.8477
H       -1.2378  -0.8846  1.9492
H       1.5853  -0.6883  -1.8648
H       1.2798  0.9034  -1.9527
H       3.5452  0.0806  -1.2477
H       2.8512  1.4552  -0.4189
H       2.9154  -1.4737  0.4708
H       3.6262  -0.0557  1.2180
H       1.3474  -0.8752  2.0345
H       1.6666  0.7090  1.8873
H       -1.5901  -0.6959  -1.8695
