27

Co      -0.0370  0.0000  0.0000
Cl      0.0035  -2.2717  -0.2170
Cl      0.0031  2.2718  0.2171
N       -1.5006  0.1316  -1.3491
N       -1.4613  -0.1317  1.3122
N       1.4949  0.1386  -1.3345
N       1.5341  -0.1383  1.3714
C       -2.7807  0.4215  -0.6355
C       -2.7564  -0.4134  0.6256
C       2.7840  0.4151  -0.6254
C       2.8087  -0.4213  0.6353
H       -1.3159  0.8557  -2.0184
H       -2.8043  1.4743  -0.4080
H       -3.6293  0.1822  -1.2559
H       -3.5850  -0.1860  1.2757
H       -2.7804  -1.4662  0.3908
H       -1.5180  0.7315  1.8153
H       -1.2672  -0.8660  1.9664
H       1.5607  -0.7306  -1.8343
H       1.3275  0.8683  -1.9987
H       3.6242  0.1875  -1.2644
H       2.8076  1.4661  -0.3919
H       2.8330  -1.4723  0.4092
H       3.6683  -0.1810  1.2449
H       1.3768  -0.8585  2.0499
H       1.6093  0.7380  1.8568
H       -1.5674  -0.7392  -1.8371
