27

Co      -0.0370  0.0031  -0.0194
Cl      0.0035  -2.3181  -0.2195
Cl      0.0031  2.3161  0.2216
N       -1.5198  0.1373  -1.3637
N       -1.5132  -0.1354  1.3451
N       1.5141  0.1443  -1.3491
N       1.5861  -0.1420  1.4043
C       -2.7447  0.4063  -0.6118
C       -2.7449  -0.4085  0.6204
C       2.7480  0.3999  -0.6018
C       2.7973  -0.4164  0.6301
H       -1.2452  0.8850  -1.9784
H       -2.8054  1.4552  -0.3707
H       -3.6146  0.1401  -1.1930
H       -3.6095  -0.1255  1.2003
H       -2.8204  -1.4580  0.3883
H       -1.4494  0.7567  1.8114
H       -1.2150  -0.8770  1.9570
H       1.4571  -0.7425  -1.8303
H       1.2569  0.8976  -1.9586
H       3.6095  0.1453  -1.2014
H       2.8087  1.4455  -0.3547
H       2.8729  -1.4641  0.4067
H       3.6905  -0.1205  1.1717
H       1.3246  -0.8695  2.0405
H       1.5384  0.7633  1.8528
H       -1.4638  -0.7502  -1.8331
