27

Co      0.0000  0.0244  0.0017
Cl      0.0002  -2.2822  -0.2130
Cl      -0.0001  2.2486  0.2097
N       -1.4519  0.1573  -1.3534
N       -1.4519  -0.1625  1.3550
N       1.4520  0.1553  -1.3533
N       1.4519  -0.1601  1.3550
C       -2.7512  0.3929  -0.6500
C       -2.7514  -0.3922  0.6483
C       2.7512  0.3929  -0.6501
C       2.7514  -0.3918  0.6485
H       -1.2879  0.9095  -1.9916
H       -2.8280  1.4495  -0.4615
H       -3.5792  0.0964  -1.2728
H       -3.5791  -0.0987  1.2712
H       -2.8287  -1.4488  0.4564
H       -1.5020  0.6683  1.9162
H       -1.2698  -0.9437  1.9558
H       1.4906  -0.7009  -1.8699
H       1.2881  0.9073  -1.9937
H       3.5791  0.0979  -1.2729
H       2.8263  1.4514  -0.4602
H       2.8271  -1.4503  0.4552
H       3.5791  -0.0997  1.2714
H       1.2697  -0.9410  1.9580
H       1.5036  0.6690  1.9140
H       -1.4888  -0.7006  -1.8721
