27

Co      -0.0370  0.0000  0.0000
Cl      0.0035  -2.2894  -0.2159
Cl      0.0031  2.2895  0.2160
N       -1.4618  0.1405  -1.3594
N       -1.4225  -0.1406  1.3225
N       1.4561  0.1456  -1.3448
N       1.4953  -0.1453  1.3816
C       -2.7762  0.4084  -0.6220
C       -2.7519  -0.4003  0.6121
C       2.7795  0.4019  -0.6119
C       2.8042  -0.4082  0.6218
H       -1.2909  0.8857  -2.0072
H       -2.8510  1.4602  -0.4160
H       -3.6153  0.1061  -1.2292
H       -3.5711  -0.1100  1.2490
H       -2.8271  -1.4521  0.3989
H       -1.4847  0.7089  1.8519
H       -1.2422  -0.8961  1.9552
H       1.5293  -0.7080  -1.8690
H       1.3026  0.8965  -1.9893
H       3.6102  0.1133  -1.2362
H       2.8539  1.4538  -0.3981
H       2.8792  -1.4601  0.4154
H       3.6543  -0.1068  1.2167
H       1.3518  -0.8867  2.0405
H       1.5778  0.7155  1.8915
H       -1.5341  -0.7167  -1.8737
