27

Co      0.0125  0.0000  0.0000
Cl      0.0002  -2.2868  -0.2177
Cl      -0.0001  2.2869  0.2178
N       -1.4564  0.1465  -1.3801
N       -1.4564  -0.1466  1.3800
N       1.4359  0.1396  -1.3299
N       1.4359  -0.1393  1.3300
C       -2.7315  0.4049  -0.6420
C       -2.7317  -0.4042  0.6420
C       2.7316  0.4071  -0.6376
C       2.7317  -0.4060  0.6377
H       -1.2906  0.8960  -2.0207
H       -2.7695  1.4596  -0.4296
H       -3.5839  0.1483  -1.2494
H       -3.5838  -0.1472  1.2495
H       -2.7702  -1.4589  0.4296
H       -1.5174  0.7094  1.9006
H       -1.2910  -0.8966  2.0202
H       1.4880  -0.7214  -1.8396
H       1.2498  0.8798  -1.9777
H       3.5611  0.1502  -1.2723
H       2.7764  1.4619  -0.4234
H       2.7773  -1.4608  0.4235
H       3.5610  -0.1486  1.2725
H       1.2500  -0.8798  1.9774
H       1.4875  0.7215  1.8400
H       -1.5176  -0.7097  -1.9003
