27

Co      0.0000  0.0000  0.0000
Cl      0.0002  -2.2975  -0.2178
Cl      -0.0001  2.2976  0.2179
N       -1.5550  0.1231  -1.3585
N       -1.5550  -0.1232  1.3584
N       1.5550  0.1248  -1.3584
N       1.5550  -0.1246  1.3584
C       -2.7722  0.4211  -0.6159
C       -2.7724  -0.4204  0.6159
C       2.7722  0.4211  -0.6160
C       2.7724  -0.4200  0.6161
H       -1.2064  0.9064  -1.9113
H       -2.8744  1.4710  -0.3925
H       -3.6273  0.1151  -1.2002
H       -3.6295  -0.1141  1.1981
H       -2.8751  -1.4689  0.3926
H       -1.5686  0.7168  1.9029
H       -1.2069  -0.9070  1.9108
H       1.5647  -0.7174  -1.9041
H       1.2066  0.9080  -1.9118
H       3.6273  0.1107  -1.2004
H       2.8764  1.4677  -0.3950
H       2.8772  -1.4666  0.3951
H       3.6272  -0.1091  1.2005
H       1.2090  -0.9080  1.9115
H       1.5642  0.7175  1.9045
H       -1.5666  -0.7171  -1.9026
