27

Co      0.0000  0.0000  0.0000
Cl      0.0002  -2.2734  -0.2132
Cl      -0.0001  2.2735  0.2133
N       -1.5082  0.1493  -1.3792
N       -1.5082  -0.1494  1.3791
N       1.5082  0.1492  -1.3791
N       1.5082  -0.1489  1.3792
C       -2.7795  0.4062  -0.6331
C       -2.7798  -0.4055  0.6331
C       2.7796  0.4062  -0.6332
C       2.7798  -0.4051  0.6333
H       -1.3013  0.9154  -1.9869
H       -2.8620  1.4542  -0.4036
H       -3.5829  0.1374  -1.3015
H       -3.5851  -0.1363  1.2994
H       -2.8626  -1.4534  0.4036
H       -1.4853  0.7172  1.8866
H       -1.3018  -0.9160  1.9864
H       1.4833  -0.7178  -1.8859
H       1.3015  0.9151  -1.9871
H       3.5829  0.1370  -1.3017
H       2.8621  1.4542  -0.4042
H       2.8629  -1.4531  0.4042
H       3.5828  -0.1354  1.3018
H       1.3017  -0.9152  1.9868
H       1.4828  0.7179  1.8863
H       -1.4833  -0.7176  -1.8863
