27

Co      0.0370  0.0000  0.0000
Cl      -0.0030  -2.3036  -0.2148
Cl      -0.0034  2.3036  0.2149
N       -1.4365  0.1628  -1.3266
N       -1.4365  -0.1629  1.3265
N       1.4030  0.1556  -1.3042
N       1.4030  -0.1554  1.3043
C       -2.7755  0.3718  -0.6486
C       -2.7757  -0.3711  0.6486
C       2.7477  0.3707  -0.6491
C       2.7479  -0.3696  0.6492
H       -1.4336  0.9247  -2.0029
H       -2.7769  1.4327  -0.4578
H       -3.6095  0.1439  -1.2944
H       -3.6072  -0.1428  1.2968
H       -2.7776  -1.4320  0.4578
H       -1.5423  0.6662  1.8899
H       -1.4340  -0.9252  2.0025
H       1.5024  -0.6684  -1.8695
H       1.3732  0.9213  -1.9716
H       3.5704  0.1428  -1.3058
H       2.7493  1.4336  -0.4579
H       2.7501  -1.4325  0.4579
H       3.5703  -0.1412  1.3060
H       1.3733  -0.9214  1.9713
H       1.5019  0.6685  1.8699
H       -1.5448  -0.6666  -1.8896
