27

Co      -0.0125  0.0000  0.0000
Cl      0.0002  -2.2975  -0.2178
Cl      -0.0001  2.2976  0.2179
N       -1.5334  0.1349  -1.3379
N       -1.5334  -0.1350  1.3378
N       1.5539  0.1435  -1.3879
N       1.5538  -0.1432  1.3879
C       -2.7764  0.4070  -0.6088
C       -2.7767  -0.4063  0.6088
C       2.7765  0.4046  -0.6135
C       2.7766  -0.4035  0.6136
H       -1.3285  0.8809  -1.9725
H       -2.8575  1.4544  -0.3666
H       -3.5867  0.1452  -1.2706
H       -3.5889  -0.1441  1.2685
H       -2.8582  -1.4523  0.3666
H       -1.5165  0.7434  1.8212
H       -1.3289  -0.8814  1.9720
H       1.5422  -0.7326  -1.8827
H       1.3696  0.8984  -2.0141
H       3.6094  0.1407  -1.2480
H       2.8527  1.4489  -0.3760
H       2.8535  -1.4478  0.3760
H       3.6093  -0.1391  1.2482
H       1.3698  -0.8985  2.0137
H       1.5417  0.7327  1.8831
H       -1.5145  -0.7437  -1.8209
