27

Co      0.0000  0.0000  0.0000
Cl      0.0002  -2.3072  -0.2148
Cl      -0.0001  2.3072  0.2149
N       -1.4397  0.1629  -1.3442
N       -1.4397  -0.1630  1.3441
N       1.4397  0.1609  -1.3441
N       1.4397  -0.1606  1.3441
C       -2.7527  0.3898  -0.6582
C       -2.7529  -0.3891  0.6582
C       2.7528  0.3898  -0.6583
C       2.7529  -0.3887  0.6584
H       -1.3017  0.9180  -1.9901
H       -2.7980  1.4532  -0.4900
H       -3.6211  0.0962  -1.2301
H       -3.6188  -0.0951  1.2325
H       -2.7987  -1.4524  0.4900
H       -1.5596  0.6655  1.9032
H       -1.3021  -0.9186  1.9896
H       1.5640  -0.6661  -1.9006
H       1.3019  0.9158  -1.9922
H       3.6211  0.0977  -1.2302
H       2.7963  1.4550  -0.4888
H       2.7971  -1.4539  0.4888
H       3.6210  -0.0961  1.2303
H       1.3020  -0.9159  1.9919
H       1.5634  0.6662  1.9009
H       -1.5621  -0.6658  -1.9028
