27

Co      0.0000  0.0000  0.0000
Cl      0.0002  -2.3055  -0.2186
Cl      -0.0001  2.3055  0.2187
N       -1.4333  0.1418  -1.3288
N       -1.4333  -0.1419  1.3287
N       1.4333  0.1417  -1.3287
N       1.4332  -0.1414  1.3288
C       -2.7693  0.4190  -0.6500
C       -2.7695  -0.4183  0.6500
C       2.7693  0.4190  -0.6502
C       2.7695  -0.4179  0.6503
H       -1.2395  0.8763  -1.9804
H       -2.8015  1.4723  -0.4306
H       -3.5816  0.1754  -1.3171
H       -3.5815  -0.1743  1.3172
H       -2.8022  -1.4730  0.4306
H       -1.4847  0.7231  1.8340
H       -1.2400  -0.8768  1.9799
H       1.4850  -0.7237  -1.8332
H       1.2397  0.8760  -1.9806
H       3.5815  0.1750  -1.3172
H       2.8016  1.4738  -0.4312
H       2.8025  -1.4727  0.4313
H       3.5815  -0.1735  1.3174
H       1.2399  -0.8760  1.9803
H       1.4845  0.7238  1.8336
H       -1.4850  -0.7234  -1.8336
