27

Co      -0.0370  0.0000  0.0000
Cl      0.0035  -2.2734  -0.2132
Cl      0.0031  2.2735  0.2133
N       -1.5159  0.1491  -1.3865
N       -1.4766  -0.1492  1.3496
N       1.5102  0.1542  -1.3719
N       1.5494  -0.1540  1.4087
C       -2.7779  0.4118  -0.6431
C       -2.7536  -0.4038  0.6332
C       2.7812  0.4054  -0.6330
C       2.8059  -0.4117  0.6429
H       -1.2228  0.9050  -1.9838
H       -2.8541  1.4622  -0.4225
H       -3.6339  0.1215  -1.2319
H       -3.5920  -0.1253  1.2494
H       -2.8302  -1.4541  0.4053
H       -1.4023  0.7264  1.8443
H       -1.1742  -0.9154  1.9318
H       1.4445  -0.7255  -1.8614
H       1.2345  0.9158  -1.9660
H       3.6288  0.1287  -1.2404
H       2.8555  1.4558  -0.4046
H       2.8809  -1.4621  0.4218
H       3.6730  -0.1222  1.2209
H       1.2838  -0.9060  2.0172
H       1.4931  0.7330  1.8839
H       -1.4494  -0.7342  -1.8661
