27

Co      0.0125  0.0000  0.0000
Cl      0.0002  -2.2859  -0.2159
Cl      -0.0001  2.2859  0.2160
N       -1.4531  0.1484  -1.3243
N       -1.4924  -0.1485  1.3610
N       1.4719  0.1415  -1.3110
N       1.4326  -0.1412  1.2742
C       -2.7565  0.4015  -0.6347
C       -2.7813  -0.4082  0.6445
C       2.7811  0.4112  -0.6401
C       2.7567  -0.4027  0.6304
H       -1.2797  0.8974  -1.9651
H       -2.8100  1.4562  -0.4221
H       -3.5798  0.1389  -1.2793
H       -3.6240  -0.1329  1.2598
H       -2.8352  -1.4629  0.4393
H       -1.5533  0.7142  1.8697
H       -1.3292  -0.8882  2.0162
H       1.5240  -0.7262  -1.8087
H       1.2880  0.8714  -1.9736
H       3.6012  0.1359  -1.2825
H       2.8415  1.4659  -0.4331
H       2.8178  -1.4574  0.4159
H       3.5570  -0.1392  1.3023
H       1.2390  -0.8813  1.9217
H       1.4744  0.7189  1.7870
H       -1.5045  -0.7071  -1.8473
