27

Co      0.0125  -0.0031  0.0194
Cl      0.0002  -2.3044  -0.2196
Cl      -0.0001  2.3065  0.2177
N       -1.4664  0.1654  -1.3349
N       -1.4730  -0.1675  1.3532
N       1.4852  0.1585  -1.3216
N       1.4132  -0.1602  1.2664
C       -2.7373  0.4111  -0.6690
C       -2.7375  -0.4075  0.6604
C       2.7619  0.4207  -0.6744
C       2.7130  -0.4020  0.6463
H       -1.3008  0.8552  -2.0409
H       -2.7959  1.4697  -0.4681
H       -3.5619  0.1425  -1.3089
H       -3.5693  -0.1549  1.2997
H       -2.7822  -1.4640  0.4505
H       -1.5064  0.7334  1.7987
H       -1.3319  -0.8644  2.0613
H       1.5098  -0.7587  -1.7377
H       1.3091  0.8292  -2.0472
H       3.5833  0.1417  -1.3136
H       2.8259  1.4793  -0.4791
H       2.7634  -1.4586  0.4272
H       3.5023  -0.1634  1.3436
H       1.2396  -0.8575  1.9647
H       1.4275  0.7381  1.7160
H       -1.4903  -0.7407  -1.7763
