27

Co      0.0125  0.0000  0.0000
Cl      0.0002  -2.3090  -0.2186
Cl      -0.0001  2.3091  0.2187
N       -1.4661  0.1645  -1.3785
N       -1.4661  -0.1646  1.3784
N       1.4457  0.1576  -1.3284
N       1.4456  -0.1573  1.3284
C       -2.7463  0.4085  -0.6443
C       -2.7466  -0.4078  0.6442
C       2.7464  0.4107  -0.6398
C       2.7466  -0.4096  0.6399
H       -1.3291  0.8662  -2.0803
H       -2.8147  1.4632  -0.4388
H       -3.5878  0.1216  -1.2567
H       -3.5878  -0.1205  1.2569
H       -2.8153  -1.4624  0.4388
H       -1.5157  0.7325  1.8322
H       -1.3295  -0.8668  2.0798
H       1.4864  -0.7445  -1.7711
H       1.2883  0.8500  -2.0350
H       3.5650  0.1257  -1.2796
H       2.8216  1.4655  -0.4326
H       2.8225  -1.4644  0.4327
H       3.5650  -0.1241  1.2798
H       1.2862  -0.8501  2.0347
H       1.4858  0.7446  1.7715
H       -1.5160  -0.7329  -1.8319
