27

Co      0.0000  0.0000  0.0000
Cl      0.0002  -2.2833  -0.2177
Cl      -0.0001  2.2833  0.2178
N       -1.4215  0.1405  -1.3196
N       -1.4215  -0.1406  1.3195
N       1.4215  0.1404  -1.3195
N       1.4215  -0.1401  1.3195
C       -2.7361  0.4025  -0.6416
C       -2.7364  -0.4018  0.6415
C       2.7362  0.4025  -0.6417
C       2.7364  -0.4014  0.6418
H       -1.3556  0.8743  -2.0112
H       -2.7569  1.4616  -0.4435
H       -3.5584  0.1614  -1.2942
H       -3.5562  -0.1603  1.2966
H       -2.7576  -1.4609  0.4435
H       -1.5959  0.6920  1.8671
H       -1.3560  -0.8748  2.0107
H       1.5984  -0.6927  -1.8664
H       1.3558  0.8740  -2.0114
H       3.5584  0.1611  -1.2943
H       2.7570  1.4616  -0.4441
H       2.7579  -1.4605  0.4442
H       3.5584  -0.1595  1.2945
H       1.3560  -0.8740  2.0111
H       1.5979  0.6928  1.8668
H       -1.5984  -0.6924  -1.8668
