27

Co      0.0000  0.0000  0.0000
Cl      0.0002  -2.2920  -0.2141
Cl      -0.0001  2.2921  0.2142
N       -1.5052  0.1542  -1.3378
N       -1.5052  -0.1543  1.3377
N       1.5052  0.1541  -1.3377
N       1.5052  -0.1538  1.3377
C       -2.8013  0.4067  -0.6446
C       -2.8015  -0.4060  0.6446
C       2.8013  0.4067  -0.6447
C       2.8015  -0.4056  0.6448
H       -1.2533  0.8954  -1.9680
H       -2.8545  1.4639  -0.4428
H       -3.6787  0.1183  -1.2091
H       -3.6786  -0.1172  1.2093
H       -2.8551  -1.4631  0.4428
H       -1.5153  0.7150  1.8360
H       -1.2538  -0.8959  1.9675
H       1.5155  -0.7156  -1.8353
H       1.2535  0.8951  -1.9682
H       3.6786  0.1179  -1.2093
H       2.8546  1.4639  -0.4434
H       2.8554  -1.4628  0.4435
H       3.6786  -0.1164  1.2094
H       1.2537  -0.8951  1.9679
H       1.5150  0.7157  1.8356
H       -1.5155  -0.7154  -1.8356
