27

Co      0.0000  -0.0244  -0.0017
Cl      0.0002  -2.2984  -0.2151
Cl      -0.0001  2.3321  0.2185
N       -1.4960  0.1549  -1.3700
N       -1.4960  -0.1499  1.3682
N       1.4960  0.1548  -1.3699
N       1.4959  -0.1494  1.3682
C       -2.7810  0.4031  -0.6413
C       -2.7813  -0.4024  0.6430
C       2.7811  0.4031  -0.6414
C       2.7813  -0.4020  0.6432
H       -1.3151  0.9239  -1.9854
H       -2.8320  1.4578  -0.4321
H       -3.6249  0.1372  -1.2588
H       -3.6249  -0.1327  1.2606
H       -2.8327  -1.4571  0.4372
H       -1.5429  0.7144  1.8736
H       -1.3341  -0.8908  2.0203
H       1.5566  -0.6830  -1.9166
H       1.3153  0.9236  -1.9856
H       3.6249  0.1368  -1.2589
H       2.8321  1.4578  -0.4327
H       2.8330  -1.4567  0.4378
H       3.6248  -0.1319  1.2608
H       1.3340  -0.8900  2.0207
H       1.5427  0.7151  1.8732
H       -1.5567  -0.6828  -1.9170
