27

Co      0.0370  -0.0031  0.0194
Cl      -0.0030  -2.3080  -0.2196
Cl      -0.0034  2.3101  0.2177
N       -1.4694  0.1627  -1.3554
N       -1.4760  -0.1648  1.3737
N       1.4751  0.1574  -1.3699
N       1.4031  -0.1592  1.3147
C       -2.7602  0.4115  -0.6461
C       -2.7605  -0.4080  0.6375
C       2.7571  0.4179  -0.6564
C       2.7081  -0.3992  0.6282
H       -1.3236  0.8546  -2.0649
H       -2.8382  1.4672  -0.4435
H       -3.5923  0.1173  -1.2672
H       -3.5997  -0.1297  1.2579
H       -2.8245  -1.4616  0.4260
H       -1.5313  0.7339  1.8220
H       -1.3547  -0.8637  2.0853
H       1.5199  -0.7494  -1.8034
H       1.3123  0.8432  -2.0810
H       3.5973  0.1116  -1.2590
H       2.8370  1.4736  -0.4627
H       2.7744  -1.4529  0.4108
H       3.5163  -0.1333  1.2890
H       1.2427  -0.8715  1.9985
H       1.4376  0.7289  1.7817
H       -1.5151  -0.7413  -1.7996
