27

Co      0.0245  0.0244  0.0017
Cl      -0.0030  -2.3063  -0.2176
Cl      -0.0034  2.2727  0.2143
N       -1.4707  0.1463  -1.3249
N       -1.4707  -0.1515  1.3265
N       1.4577  0.1479  -1.3526
N       1.4576  -0.1526  1.3543
C       -2.7825  0.4045  -0.6472
C       -2.7828  -0.4038  0.6455
C       2.7548  0.4012  -0.6522
C       2.7550  -0.4001  0.6506
H       -1.3443  0.8609  -2.0227
H       -2.8020  1.4660  -0.4575
H       -3.6547  0.1430  -1.2290
H       -3.6524  -0.1452  1.2298
H       -2.8027  -1.4653  0.4525
H       -1.6113  0.6798  1.8758
H       -1.3262  -0.8951  1.9869
H       1.5856  -0.7026  -1.8738
H       1.3249  0.8753  -2.0327
H       3.6383  0.1377  -1.2177
H       2.7694  1.4628  -0.4663
H       2.7703  -1.4617  0.4613
H       3.6383  -0.1395  1.2162
H       1.3065  -0.9090  1.9971
H       1.5986  0.6707  1.9179
H       -1.6003  -0.7122  -1.8317
