27

Co      -0.0370  0.0000  0.0000
Cl      0.0035  -2.3152  -0.2168
Cl      0.0031  2.3153  0.2169
N       -1.4792  0.1497  -1.3580
N       -1.4792  -0.1499  1.3579
N       1.5128  0.1549  -1.3802
N       1.5127  -0.1546  1.3802
C       -2.7672  0.4026  -0.6423
C       -2.7674  -0.4019  0.6423
C       2.7950  0.4036  -0.6421
C       2.7952  -0.4025  0.6422
H       -1.2941  0.9065  -1.9864
H       -2.8191  1.4573  -0.4353
H       -3.6053  0.1342  -1.2653
H       -3.6053  -0.1331  1.2655
H       -2.8197  -1.4566  0.4353
H       -1.5275  0.6992  1.8860
H       -1.2945  -0.9070  1.9859
H       1.5721  -0.6982  -1.9031
H       1.3549  0.9074  -2.0200
H       3.6444  0.1364  -1.2541
H       2.8451  1.4583  -0.4346
H       2.8459  -1.4572  0.4346
H       3.6444  -0.1349  1.2543
H       1.3550  -0.9075  2.0197
H       1.5716  0.6983  1.9035
H       -1.5278  -0.6995  -1.8857
