27

Co      0.0000  0.0000  0.0000
Cl      0.0002  -2.3036  -0.2148
Cl      -0.0001  2.3036  0.2149
N       -1.4149  0.1591  -1.3239
N       -1.4149  -0.1592  1.3238
N       1.4149  0.1571  -1.3238
N       1.4148  -0.1568  1.3238
C       -2.7734  0.4037  -0.6685
C       -2.7736  -0.4030  0.6684
C       2.7735  0.4036  -0.6686
C       2.7736  -0.4025  0.6687
H       -1.2592  0.9028  -1.9782
H       -2.8036  1.4656  -0.4918
H       -3.6174  0.1290  -1.2812
H       -3.6151  -0.1279  1.2836
H       -2.8042  -1.4663  0.4919
H       -1.5323  0.6769  1.8715
H       -1.2596  -0.9034  1.9778
H       1.5367  -0.6775  -1.8689
H       1.2594  0.9006  -1.9803
H       3.6174  0.1305  -1.2814
H       2.8018  1.4689  -0.4906
H       2.8027  -1.4678  0.4906
H       3.6173  -0.1289  1.2815
H       1.2595  -0.9007  1.9800
H       1.5362  0.6776  1.8693
H       -1.5349  -0.6772  -1.8712
