27

Co      0.0000  0.0244  0.0017
Cl      0.0002  -2.3037  -0.2194
Cl      -0.0001  2.2701  0.2161
N       -1.4323  0.1404  -1.3474
N       -1.4323  -0.1455  1.3490
N       1.4323  0.1403  -1.3474
N       1.4322  -0.1450  1.3491
C       -2.7337  0.4013  -0.6448
C       -2.7340  -0.4006  0.6431
C       2.7338  0.4013  -0.6449
C       2.7340  -0.4002  0.6433
H       -1.3792  0.8670  -2.0492
H       -2.7485  1.4604  -0.4484
H       -3.5692  0.1621  -1.2819
H       -3.5669  -0.1644  1.2826
H       -2.7492  -1.4597  0.4434
H       -1.6158  0.6689  1.9249
H       -1.3611  -0.9012  2.0134
H       1.6048  -0.7015  -1.8804
H       1.3794  0.8667  -2.0495
H       3.5692  0.1618  -1.2820
H       2.7486  1.4604  -0.4491
H       2.7495  -1.4593  0.4440
H       3.5691  -0.1636  1.2805
H       1.3611  -0.9004  2.0138
H       1.6178  0.6696  1.9246
H       -1.6048  -0.7012  -1.8808
