27

Co      0.0125  0.0213  0.0211
Cl      0.0002  -2.2998  -0.2149
Cl      -0.0001  2.2682  0.2096
N       -1.4370  0.1607  -1.3362
N       -1.4435  -0.1679  1.3562
N       1.4558  0.1519  -1.3229
N       1.3837  -0.1587  1.2694
C       -2.7912  0.4040  -0.6759
C       -2.7914  -0.4004  0.6656
C       2.8158  0.4136  -0.6813
C       2.7669  -0.3949  0.6514
H       -1.2896  0.8923  -2.0044
H       -2.8287  1.4669  -0.5075
H       -3.6411  0.1167  -1.2772
H       -3.6462  -0.1325  1.2685
H       -2.8151  -1.4627  0.4848
H       -1.5772  0.6490  1.9334
H       -1.3022  -0.9351  1.9895
H       1.5712  -0.7063  -1.8267
H       1.2979  0.8644  -2.0148
H       3.6625  0.1156  -1.2804
H       2.8583  1.4799  -0.5166
H       2.7958  -1.4591  0.4596
H       3.5815  -0.1407  1.3088
H       1.2121  -0.9263  1.8969
H       1.5024  0.6538  1.8487
H       -1.5499  -0.6883  -1.8672
