27

Co      0.0370  0.0244  0.0017
Cl      -0.0030  -2.3001  -0.2194
Cl      -0.0034  2.2665  0.2161
N       -1.4378  0.1473  -1.3057
N       -1.4771  -0.1524  1.3441
N       1.4435  0.1420  -1.3202
N       1.4042  -0.1468  1.2851
C       -2.7263  0.4018  -0.6651
C       -2.7511  -0.4084  0.6732
C       2.7231  0.4081  -0.6753
C       2.6987  -0.3996  0.6639
H       -1.2993  0.8610  -1.9991
H       -2.7160  1.4661  -0.4694
H       -3.5930  0.1814  -1.2680
H       -3.6349  -0.1788  1.2491
H       -2.7412  -1.4728  0.4815
H       -1.6087  0.6882  1.8791
H       -1.3303  -0.8854  2.0149
H       1.5534  -0.7224  -1.8168
H       1.2880  0.8496  -2.0175
H       3.5980  0.1735  -1.2613
H       2.7133  1.4725  -0.4885
H       2.6896  -1.4640  0.4663
H       3.5538  -0.1802  1.2794
H       1.2205  -0.8932  1.9302
H       1.5173  0.6831  1.8389
H       -1.5486  -0.7132  -1.8130
