27

Co      0.0370  0.0244  0.0017
Cl      -0.0030  -2.2786  -0.2130
Cl      -0.0034  2.2450  0.2097
N       -1.4414  0.1795  -1.3094
N       -1.4806  -0.1847  1.3478
N       1.4471  0.1724  -1.3238
N       1.4078  -0.1772  1.2887
C       -2.7438  0.3931  -0.6766
C       -2.7686  -0.3997  0.6848
C       2.7406  0.3994  -0.6869
C       2.7162  -0.3910  0.6755
H       -1.3344  0.8660  -2.0404
H       -2.7932  1.4593  -0.5087
H       -3.5908  0.1101  -1.2814
H       -3.6327  -0.1075  1.2625
H       -2.8184  -1.4659  0.5209
H       -1.5903  0.6840  1.8394
H       -1.3654  -0.8904  2.0561
H       1.5369  -0.7182  -1.7752
H       1.3231  0.8528  -2.0584
H       3.5958  0.1063  -1.2747
H       2.7887  1.4676  -0.5260
H       2.7650  -1.4591  0.5038
H       3.5516  -0.1130  1.2928
H       1.2534  -0.8964  1.9711
H       1.5007  0.6789  1.7973
H       -1.5302  -0.7090  -1.7732
