27

Co      -0.0370  0.0031  -0.0194
Cl      0.0035  -2.2763  -0.2160
Cl      0.0031  2.2744  0.2181
N       -1.5273  0.1344  -1.3670
N       -1.5208  -0.1325  1.3484
N       1.5216  0.1414  -1.3524
N       1.5936  -0.1391  1.4076
C       -2.7390  0.4245  -0.6140
C       -2.7392  -0.4266  0.6225
C       2.7423  0.4181  -0.6039
C       2.7915  -0.4345  0.6322
H       -1.2061  0.8735  -1.9782
H       -2.8534  1.4733  -0.3885
H       -3.5898  0.1075  -1.1983
H       -3.5846  -0.0929  1.2056
H       -2.8684  -1.4761  0.4061
H       -1.5178  0.7510  1.8225
H       -1.1758  -0.8654  1.9569
H       1.5255  -0.7368  -1.8415
H       1.2178  0.8861  -1.9585
H       3.5847  0.1128  -1.2067
H       2.8567  1.4637  -0.3725
H       2.9210  -1.4822  0.4245
H       3.6656  -0.0879  1.1770
H       1.2854  -0.8579  2.0403
H       1.6068  0.7575  1.8639
H       -1.5322  -0.7444  -1.8443
