27

Co      0.0370  0.0213  0.0211
Cl      -0.0030  -2.3053  -0.2186
Cl      -0.0034  2.2737  0.2133
N       -1.4777  0.1487  -1.3407
N       -1.4843  -0.1559  1.3607
N       1.4834  0.1434  -1.3552
N       1.4114  -0.1502  1.3016
C       -2.7825  0.4048  -0.6538
C       -2.7828  -0.4013  0.6435
C       2.7793  0.4112  -0.6641
C       2.7304  -0.3925  0.6342
H       -1.3494  0.8646  -2.0339
H       -2.8058  1.4673  -0.4697
H       -3.6624  0.1351  -1.2224
H       -3.6675  -0.1509  1.2137
H       -2.7921  -1.4617  0.4471
H       -1.6343  0.6706  1.9175
H       -1.3620  -0.9074  2.0189
H       1.6117  -0.7181  -1.8553
H       1.3381  0.8532  -2.0522
H       3.6674  0.1272  -1.2142
H       2.8046  1.4737  -0.4889
H       2.7420  -1.4530  0.4319
H       3.5864  -0.1523  1.2425
H       1.2523  -0.9152  1.9343
H       1.5429  0.6656  1.8773
H       -1.6070  -0.7099  -1.8514
