27

Co      0.0370  0.0000  0.0000
Cl      -0.0030  -2.2833  -0.2177
Cl      -0.0034  2.2833  0.2178
N       -1.4325  0.1432  -1.3191
N       -1.4718  -0.1434  1.3558
N       1.4383  0.1380  -1.3335
N       1.3989  -0.1377  1.2967
C       -2.7355  0.4040  -0.6323
C       -2.7603  -0.4107  0.6421
C       2.7323  0.4104  -0.6426
C       2.7079  -0.4019  0.6328
H       -1.2615  0.8840  -1.9697
H       -2.7819  1.4587  -0.4146
H       -3.5592  0.1508  -1.2781
H       -3.6033  -0.1448  1.2586
H       -2.8071  -1.4654  0.4317
H       -1.5361  0.7251  1.8545
H       -1.3110  -0.8747  2.0208
H       1.4921  -0.7273  -1.8360
H       1.2502  0.8727  -1.9880
H       3.5642  0.1429  -1.2699
H       2.7807  1.4651  -0.4337
H       2.7570  -1.4567  0.4166
H       3.5200  -0.1462  1.2897
H       1.2012  -0.8825  1.9361
H       1.4425  0.7201  1.8143
H       -1.4873  -0.7181  -1.8321
