27

Co      0.0000  -0.0031  0.0194
Cl      0.0002  -2.2662  -0.2161
Cl      -0.0001  2.2683  0.2141
N       -1.4580  0.1438  -1.3432
N       -1.4646  -0.1460  1.3615
N       1.4973  0.1437  -1.3799
N       1.4253  -0.1455  1.3247
C       -2.7493  0.4075  -0.6441
C       -2.7495  -0.4039  0.6355
C       2.7739  0.4148  -0.6540
C       2.7250  -0.3961  0.6259
H       -1.2708  0.8864  -1.9860
H       -2.8014  1.4632  -0.4359
H       -3.5848  0.1400  -1.2673
H       -3.5922  -0.1524  1.2580
H       -2.7878  -1.4576  0.4183
H       -1.5259  0.7089  1.8792
H       -1.3019  -0.8956  2.0064
H       1.5589  -0.7228  -1.8784
H       1.3201  0.8763  -2.0377
H       3.6290  0.1347  -1.2478
H       2.8261  1.4706  -0.4537
H       2.7635  -1.4498  0.4018
H       3.5479  -0.1565  1.2778
H       1.2527  -0.9046  1.9552
H       1.4766  0.7023  1.8567
H       -1.5098  -0.7162  -1.8567
