27

Co      0.0000  0.0000  0.0000
Cl      0.0002  -2.3055  -0.2186
Cl      -0.0001  2.3055  0.2187
N       -1.4425  0.1408  -1.3204
N       -1.4425  -0.1409  1.3203
N       1.4425  0.1407  -1.3203
N       1.4425  -0.1404  1.3203
C       -2.7509  0.4039  -0.6325
C       -2.7512  -0.4032  0.6325
C       2.7510  0.4039  -0.6326
C       2.7512  -0.4028  0.6327
H       -1.3404  0.8867  -1.9840
H       -2.8116  1.4562  -0.4167
H       -3.5260  0.1523  -1.3445
H       -3.5260  -0.1513  1.3447
H       -2.8123  -1.4555  0.4167
H       -1.5352  0.7067  1.8516
H       -1.3409  -0.8873  1.9836
H       1.5354  -0.7073  -1.8508
H       1.3406  0.8864  -1.9843
H       3.5260  0.1520  -1.3447
H       2.8117  1.4562  -0.4173
H       2.8126  -1.4551  0.4173
H       3.5259  -0.1504  1.3448
H       1.3408  -0.8865  1.9839
H       1.5349  0.7074  1.8512
H       -1.5355  -0.7071  -1.8512
