27

Co      0.0000  0.0244  0.0017
Cl      0.0002  -2.2822  -0.2130
Cl      -0.0001  2.2486  0.2097
N       -1.4335  0.1580  -1.3619
N       -1.4335  -0.1632  1.3634
N       1.4336  0.1561  -1.3618
N       1.4335  -0.1609  1.3635
C       -2.7760  0.3883  -0.6605
C       -2.7762  -0.3876  0.6588
C       2.7760  0.3883  -0.6606
C       2.7762  -0.3872  0.6590
H       -1.3029  0.9146  -2.0044
H       -2.7755  1.4435  -0.4463
H       -3.6143  0.1683  -1.3022
H       -3.6142  -0.1706  1.3006
H       -2.7762  -1.4442  0.4412
H       -1.4252  0.6790  1.9118
H       -1.2849  -0.9489  1.9685
H       1.4139  -0.7116  -1.8654
H       1.3031  0.9125  -2.0065
H       3.6142  0.1698  -1.3023
H       2.7737  1.4468  -0.4450
H       2.7746  -1.4457  0.4400
H       3.6142  -0.1716  1.3008
H       1.2848  -0.9462  1.9708
H       1.4269  0.6797  1.9096
H       -1.4120  -0.7114  -1.8677
