27

Co      0.0000  0.0000  0.0000
Cl      0.0002  -2.3152  -0.2168
Cl      -0.0001  2.3153  0.2169
N       -1.5008  0.1548  -1.3691
N       -1.5008  -0.1549  1.3690
N       1.5008  0.1547  -1.3691
N       1.5008  -0.1544  1.3691
C       -2.7810  0.4055  -0.6470
C       -2.7813  -0.4048  0.6470
C       2.7811  0.4055  -0.6471
C       2.7813  -0.4044  0.6472
H       -1.2516  0.9023  -1.9910
H       -2.8247  1.4627  -0.4443
H       -3.6734  0.1234  -1.1942
H       -3.6734  -0.1223  1.1943
H       -2.8254  -1.4619  0.4443
H       -1.5133  0.7105  1.8736
H       -1.2521  -0.9028  1.9905
H       1.5135  -0.7111  -1.8729
H       1.2518  0.9020  -1.9912
H       3.6734  0.1230  -1.1943
H       2.8248  1.4627  -0.4449
H       2.8257  -1.4616  0.4450
H       3.6733  -0.1214  1.1945
H       1.2520  -0.9020  1.9909
H       1.5130  0.7112  1.8733
H       -1.5136  -0.7109  -1.8733
