27

Co      0.0000  -0.0244  -0.0017
Cl      0.0002  -2.2788  -0.2124
Cl      -0.0001  2.3125  0.2159
N       -1.4968  0.1524  -1.3730
N       -1.4968  -0.1474  1.3712
N       1.4968  0.1523  -1.3730
N       1.4968  -0.1469  1.3713
C       -2.8103  0.4031  -0.6184
C       -2.8105  -0.4024  0.6201
C       2.8104  0.4031  -0.6186
C       2.8105  -0.4020  0.6203
H       -1.3297  0.9238  -1.9913
H       -2.8877  1.4550  -0.4101
H       -3.6524  0.1045  -1.2263
H       -3.6523  -0.1000  1.2281
H       -2.8884  -1.4542  0.4152
H       -1.5624  0.7146  1.8804
H       -1.3487  -0.8906  2.0262
H       1.5761  -0.6832  -1.9234
H       1.3299  0.9235  -1.9916
H       3.6523  0.1041  -1.2250
H       2.8892  1.4550  -0.4107
H       2.8901  -1.4539  0.4158
H       3.6523  -0.0992  1.2268
H       1.3486  -0.8899  2.0266
H       1.5621  0.7153  1.8800
H       -1.5761  -0.6829  -1.9238
