27

Co      0.0370  0.0000  0.0000
Cl      -0.0030  -2.2814  -0.2140
Cl      -0.0034  2.2814  0.2141
N       -1.4197  0.1591  -1.3410
N       -1.4197  -0.1592  1.3409
N       1.3861  0.1519  -1.3187
N       1.3861  -0.1517  1.3187
C       -2.7702  0.4050  -0.6683
C       -2.7704  -0.4043  0.6683
C       2.7425  0.4040  -0.6688
C       2.7426  -0.4029  0.6688
H       -1.2775  0.9000  -2.0018
H       -2.7935  1.4670  -0.4886
H       -3.6242  0.1371  -1.2705
H       -3.6219  -0.1360  1.2729
H       -2.7941  -1.4677  0.4886
H       -1.5451  0.6795  1.8852
H       -1.2779  -0.9005  2.0013
H       1.5052  -0.6817  -1.8648
H       1.2171  0.8966  -1.9704
H       3.5850  0.1360  -1.2819
H       2.7658  1.4693  -0.4887
H       2.7667  -1.4682  0.4887
H       3.5850  -0.1344  1.2821
H       1.2173  -0.8967  1.9701
H       1.5047  0.6818  1.8652
H       -1.5476  -0.6799  -1.8849
