27

Co      0.0000  0.0244  0.0017
Cl      0.0002  -2.2841  -0.2167
Cl      -0.0001  2.2505  0.2135
N       -1.4613  0.1423  -1.3515
N       -1.4613  -0.1475  1.3531
N       1.4613  0.1422  -1.3515
N       1.4613  -0.1470  1.3532
C       -2.7493  0.4060  -0.6406
C       -2.7495  -0.4053  0.6389
C       2.7494  0.4060  -0.6407
C       2.7495  -0.4049  0.6391
H       -1.2954  0.8739  -2.0141
H       -2.7943  1.4607  -0.4296
H       -3.5885  0.1451  -1.2634
H       -3.5885  -0.1474  1.2619
H       -2.7949  -1.4600  0.4246
H       -1.5245  0.6964  1.8900
H       -1.2773  -0.9081  1.9783
H       1.5112  -0.7290  -1.8455
H       1.2956  0.8736  -2.0143
H       3.5885  0.1447  -1.2635
H       2.7944  1.4607  -0.4303
H       2.7952  -1.4596  0.4252
H       3.5884  -0.1465  1.2620
H       1.2772  -0.9073  1.9786
H       1.5242  0.6971  1.8897
H       -1.5113  -0.7287  -1.8459
