27

Co      0.0370  0.0000  0.0000
Cl      -0.0030  -2.3036  -0.2148
Cl      -0.0034  2.3036  0.2149
N       -1.4273  0.1638  -1.3350
N       -1.4273  -0.1639  1.3349
N       1.3938  0.1567  -1.3127
N       1.3937  -0.1564  1.3127
C       -2.7938  0.3869  -0.6661
C       -2.7940  -0.3862  0.6661
C       2.7660  0.3858  -0.6666
C       2.7662  -0.3847  0.6667
H       -1.3327  0.9142  -1.9993
H       -2.7668  1.4488  -0.4717
H       -3.6651  0.1670  -1.2669
H       -3.6628  -0.1659  1.2693
H       -2.7675  -1.4495  0.4717
H       -1.4918  0.6826  1.8723
H       -1.3331  -0.9148  1.9988
H       1.4519  -0.6848  -1.8519
H       1.2723  0.9108  -1.9679
H       3.6259  0.1659  -1.2784
H       2.7392  1.4511  -0.4718
H       2.7400  -1.4500  0.4719
H       3.6259  -0.1643  1.2785
H       1.2724  -0.9109  1.9676
H       1.4514  0.6849  1.8523
H       -1.4944  -0.6829  -1.8720
