27

Co      0.0370  0.0244  0.0017
Cl      -0.0030  -2.3223  -0.2203
Cl      -0.0034  2.2887  0.2170
N       -1.4396  0.1409  -1.3123
N       -1.4789  -0.1460  1.3507
N       1.4454  0.1356  -1.3267
N       1.4060  -0.1403  1.2916
C       -2.7526  0.4008  -0.6283
C       -2.7773  -0.4074  0.6364
C       2.7494  0.4071  -0.6386
C       2.7250  -0.3986  0.6272
H       -1.3554  0.8754  -1.9927
H       -2.8123  1.4530  -0.4099
H       -3.5235  0.1544  -1.3495
H       -3.5676  -0.1518  1.3284
H       -2.8375  -1.4597  0.4221
H       -1.5886  0.6936  1.8940
H       -1.3865  -0.8998  2.0084
H       1.5311  -0.7278  -1.8317
H       1.3441  0.8641  -2.0110
H       3.5285  0.1465  -1.3414
H       2.8111  1.4594  -0.4291
H       2.7873  -1.4510  0.4069
H       3.4843  -0.1532  1.3595
H       1.2767  -0.9076  1.9238
H       1.4950  0.6885  1.8537
H       -1.5263  -0.7186  -1.8278
