27

Co      -0.0370  0.0031  -0.0194
Cl      0.0035  -2.2763  -0.2160
Cl      0.0031  2.2744  0.2181
N       -1.5134  0.1342  -1.3602
N       -1.5069  -0.1323  1.3417
N       1.5077  0.1412  -1.3456
N       1.5797  -0.1389  1.4008
C       -2.7412  0.4198  -0.6182
C       -2.7415  -0.4219  0.6267
C       2.7446  0.4134  -0.6081
C       2.7938  -0.4299  0.6364
H       -1.3060  0.8693  -2.0107
H       -2.8290  1.4730  -0.4082
H       -3.5865  0.1219  -1.2185
H       -3.5791  -0.1073  1.2281
H       -2.8440  -1.4758  0.4258
H       -1.6243  0.7208  1.8556
H       -1.2757  -0.8612  1.9893
H       1.6342  -0.7066  -1.8746
H       1.3177  0.8819  -1.9909
H       3.5814  0.1272  -1.2270
H       2.8323  1.4634  -0.3922
H       2.8966  -1.4819  0.4442
H       3.6623  -0.1023  1.1973
H       1.3853  -0.8537  2.0728
H       1.7155  0.7273  1.8971
H       -1.6409  -0.7142  -1.8774
