27

Co      -0.0125  0.0031  -0.0194
Cl      0.0002  -2.2931  -0.2131
Cl      -0.0001  2.2911  0.2152
N       -1.4876  0.1495  -1.3103
N       -1.5203  -0.1476  1.3286
N       1.5081  0.1563  -1.3603
N       1.5408  -0.1539  1.3787
C       -2.7867  0.4050  -0.6241
C       -2.8115  -0.4145  0.6425
C       2.7868  0.4027  -0.6288
C       2.8115  -0.4118  0.6473
H       -1.1965  0.9056  -1.9106
H       -2.8701  1.4544  -0.3926
H       -3.6037  0.1264  -1.2708
H       -3.6427  -0.1069  1.2585
H       -2.9096  -1.4659  0.4274
H       -1.4468  0.7460  1.7939
H       -1.2153  -0.8878  1.9408
H       1.4416  -0.7219  -1.8535
H       1.2377  0.9213  -1.9541
H       3.6264  0.1237  -1.2482
H       2.8634  1.4521  -0.4001
H       2.9031  -1.4633  0.4349
H       3.6631  -0.1038  1.2381
H       1.2562  -0.9029  1.9845
H       1.4738  0.7353  1.8539
H       -1.4120  -0.7320  -1.7936
