27

Co      0.0370  0.0000  0.0000
Cl      -0.0030  -2.2637  -0.2151
Cl      -0.0034  2.2637  0.2152
N       -1.4491  0.1470  -1.3280
N       -1.4491  -0.1471  1.3279
N       1.4156  0.1418  -1.3057
N       1.4155  -0.1415  1.3057
C       -2.7743  0.3857  -0.6392
C       -2.7746  -0.3850  0.6392
C       2.7466  0.3847  -0.6397
C       2.7468  -0.3836  0.6398
H       -1.4452  0.8884  -2.0296
H       -2.7415  1.4448  -0.4243
H       -3.6221  0.1968  -1.2817
H       -3.6198  -0.1957  1.2841
H       -2.7422  -1.4441  0.4243
H       -1.5705  0.6951  1.8662
H       -1.4456  -0.8889  2.0291
H       1.5287  -0.6973  -1.8477
H       1.3848  0.8868  -1.9964
H       3.5830  0.1938  -1.2931
H       2.7158  1.4438  -0.4263
H       2.7166  -1.4427  0.4263
H       3.5829  -0.1922  1.2933
H       1.3849  -0.8869  1.9960
H       1.5282  0.6974  1.8480
H       -1.5730  -0.6954  -1.8659
