27

Co      0.0000  0.0000  0.0000
Cl      0.0002  -2.2618  -0.2113
Cl      -0.0001  2.2619  0.2114
N       -1.4273  0.1573  -1.3188
N       -1.4273  -0.1574  1.3187
N       1.4273  0.1553  -1.3187
N       1.4272  -0.1550  1.3187
C       -2.7558  0.3894  -0.6509
C       -2.7561  -0.3887  0.6509
C       2.7559  0.3894  -0.6511
C       2.7560  -0.3883  0.6511
H       -1.3642  0.9125  -1.9861
H       -2.8120  1.4504  -0.4762
H       -3.5651  0.1101  -1.3053
H       -3.5628  -0.1090  1.3078
H       -2.8127  -1.4496  0.4763
H       -1.5885  0.6613  1.8916
H       -1.3646  -0.9131  1.9856
H       1.5929  -0.6619  -1.8890
H       1.3643  0.9104  -1.9882
H       3.5651  0.1115  -1.3055
H       2.8102  1.4522  -0.4750
H       2.8111  -1.4511  0.4750
H       3.5650  -0.1100  1.3056
H       1.3645  -0.9104  1.9878
H       1.5924  0.6620  1.8894
H       -1.5911  -0.6616  -1.8913
