27

Co      0.0000  -0.0244  -0.0017
Cl      0.0002  -2.2948  -0.2151
Cl      -0.0001  2.3285  0.2185
N       -1.5036  0.1517  -1.3328
N       -1.5036  -0.1468  1.3310
N       1.5036  0.1516  -1.3327
N       1.5036  -0.1463  1.3311
C       -2.7587  0.4089  -0.6284
C       -2.7589  -0.4082  0.6301
C       2.7587  0.4089  -0.6285
C       2.7589  -0.4078  0.6303
H       -1.2857  0.9092  -1.9523
H       -2.8929  1.4650  -0.4449
H       -3.5790  0.0629  -1.2426
H       -3.5790  -0.0584  1.2444
H       -2.8935  -1.4629  0.4500
H       -1.6065  0.7109  1.8421
H       -1.3047  -0.8761  1.9872
H       1.6202  -0.6795  -1.8852
H       1.2859  0.9089  -1.9525
H       3.5790  0.0625  -1.2427
H       2.8930  1.4636  -0.4455
H       2.8938  -1.4625  0.4506
H       3.5789  -0.0575  1.2446
H       1.3046  -0.8753  1.9876
H       1.6062  0.7116  1.8418
H       -1.6202  -0.6792  -1.8856
