27

Co      0.0370  -0.0031  0.0194
Cl      -0.0030  -2.2858  -0.2187
Cl      -0.0034  2.2879  0.2168
N       -1.4718  0.1644  -1.3557
N       -1.4783  -0.1666  1.3740
N       1.4775  0.1591  -1.3702
N       1.4054  -0.1609  1.3149
C       -2.7317  0.4124  -0.6690
C       -2.7320  -0.4088  0.6604
C       2.7285  0.4187  -0.6793
C       2.6796  -0.4000  0.6511
H       -1.3130  0.8540  -2.0632
H       -2.7808  1.4710  -0.4638
H       -3.5681  0.1541  -1.2964
H       -3.5754  -0.1665  1.2871
H       -2.7672  -1.4653  0.4463
H       -1.5176  0.7345  1.8177
H       -1.3442  -0.8632  2.0836
H       1.5062  -0.7500  -1.7991
H       1.3017  0.8427  -2.0793
H       3.5731  0.1484  -1.2896
H       2.7782  1.4774  -0.4830
H       2.7156  -1.4566  0.4311
H       3.4921  -0.1702  1.3196
H       1.2322  -0.8710  1.9967
H       1.4239  0.7294  1.7774
H       -1.5015  -0.7418  -1.7952
