27

Co      0.0370  0.0000  0.0000
Cl      -0.0030  -2.2868  -0.2177
Cl      -0.0034  2.2869  0.2178
N       -1.4491  0.1455  -1.3594
N       -1.4490  -0.1456  1.3593
N       1.4155  0.1402  -1.3371
N       1.4155  -0.1399  1.3371
C       -2.7476  0.4018  -0.6438
C       -2.7479  -0.4011  0.6438
C       2.7199  0.4008  -0.6443
C       2.7201  -0.3997  0.6443
H       -1.4003  0.8845  -2.0483
H       -2.7615  1.4609  -0.4452
H       -3.5888  0.1651  -1.2754
H       -3.5865  -0.1640  1.2778
H       -2.7621  -1.4602  0.4452
H       -1.6312  0.6841  1.9125
H       -1.4007  -0.8850  2.0478
H       1.5894  -0.6863  -1.8940
H       1.3399  0.8829  -2.0151
H       3.5496  0.1621  -1.2868
H       2.7357  1.4599  -0.4472
H       2.7366  -1.4588  0.4472
H       3.5496  -0.1606  1.2870
H       1.3400  -0.8830  2.0147
H       1.5889  0.6864  1.8943
H       -1.6337  -0.6844  -1.9122
