27

Co      0.0000  0.0031  -0.0194
Cl      0.0002  -2.2923  -0.2186
Cl      -0.0001  2.2904  0.2208
N       -1.4803  0.1348  -1.3269
N       -1.5131  -0.1329  1.3452
N       1.4804  0.1366  -1.3268
N       1.5130  -0.1343  1.3452
C       -2.7339  0.4005  -0.6085
C       -2.7587  -0.4100  0.6269
C       2.7340  0.4005  -0.6086
C       2.7587  -0.4096  0.6271
H       -1.3245  0.8734  -1.9883
H       -2.7670  1.4537  -0.3762
H       -3.5852  0.1627  -1.2254
H       -3.6220  -0.1432  1.2153
H       -2.8065  -1.4639  0.4110
H       -1.5800  0.7400  1.8334
H       -1.3434  -0.8555  2.0185
H       1.5457  -0.7273  -1.8345
H       1.3247  0.8749  -1.9866
H       3.5852  0.1604  -1.2256
H       2.7690  1.4505  -0.3787
H       2.8087  -1.4616  0.4135
H       3.6220  -0.1404  1.2155
H       1.3433  -0.8566  2.0170
H       1.5779  0.7407  1.8349
H       -1.5476  -0.7261  -1.8331
