27

Co      -0.0125  0.0031  -0.0194
Cl      0.0002  -2.2959  -0.2186
Cl      -0.0001  2.2939  0.2208
N       -1.5025  0.1171  -1.3598
N       -1.4960  -0.1151  1.3412
N       1.4838  0.1257  -1.3729
N       1.5557  -0.1234  1.4282
C       -2.7621  0.4171  -0.6198
C       -2.7623  -0.4192  0.6284
C       2.7376  0.4074  -0.6147
C       2.7868  -0.4239  0.6430
H       -1.1884  0.9018  -1.9223
H       -2.7738  1.4645  -0.3617
H       -3.6259  0.2045  -1.2294
H       -3.6207  -0.1899  1.2367
H       -2.7887  -1.4687  0.3793
H       -1.4444  0.7427  1.8628
H       -1.1581  -0.8938  1.9010
H       1.4374  -0.7187  -1.9243
H       1.1804  0.9291  -1.9146
H       3.6044  0.2026  -1.2264
H       2.7444  1.4530  -0.3538
H       2.8086  -1.4715  0.4058
H       3.6854  -0.1777  1.1967
H       1.2503  -0.9010  1.9965
H       1.5187  0.7394  1.9467
H       -1.4588  -0.7361  -1.8845
