27

Co      0.0000  0.0000  0.0000
Cl      0.0002  -2.2637  -0.2151
Cl      -0.0001  2.2637  0.2152
N       -1.4365  0.1410  -1.3321
N       -1.4365  -0.1411  1.3320
N       1.4365  0.1409  -1.3320
N       1.4364  -0.1407  1.3321
C       -2.7700  0.4199  -0.6500
C       -2.7702  -0.4192  0.6500
C       2.7701  0.4199  -0.6502
C       2.7702  -0.4188  0.6503
H       -1.2436  0.8755  -1.9845
H       -2.7998  1.4732  -0.4289
H       -3.5848  0.1796  -1.3137
H       -3.5848  -0.1785  1.3139
H       -2.8005  -1.4739  0.4289
H       -1.4905  0.7238  1.8364
H       -1.2440  -0.8761  1.9840
H       1.4907  -0.7244  -1.8357
H       1.2438  0.8752  -1.9848
H       3.5848  0.1792  -1.3139
H       2.8000  1.4746  -0.4296
H       2.8008  -1.4735  0.4296
H       3.5847  -0.1776  1.3140
H       1.2440  -0.8753  1.9844
H       1.4902  0.7245  1.8361
H       -1.4908  -0.7242  -1.8361
