27

Co      0.0370  0.0244  0.0017
Cl      -0.0030  -2.3259  -0.2203
Cl      -0.0034  2.2923  0.2170
N       -1.4658  0.1479  -1.3526
N       -1.4658  -0.1531  1.3542
N       1.4323  0.1427  -1.3302
N       1.4323  -0.1474  1.3319
C       -2.7647  0.4034  -0.6495
C       -2.7649  -0.4027  0.6478
C       2.7370  0.4024  -0.6500
C       2.7371  -0.4013  0.6483
H       -1.3487  0.8662  -2.0470
H       -2.7772  1.4649  -0.4600
H       -3.6501  0.1445  -1.2159
H       -3.6478  -0.1468  1.2166
H       -2.7779  -1.4642  0.4550
H       -1.6109  0.6768  1.9083
H       -1.3306  -0.9004  2.0112
H       1.5557  -0.7110  -1.8460
H       1.2883  0.8647  -2.0138
H       3.6109  0.1415  -1.2273
H       2.7515  1.4639  -0.4620
H       2.7523  -1.4628  0.4570
H       3.6109  -0.1433  1.2258
H       1.2700  -0.8984  1.9781
H       1.5686  0.6791  1.8901
H       -1.6000  -0.7091  -1.8642
