27

Co      -0.0125  0.0000  0.0000
Cl      0.0002  -2.2920  -0.2141
Cl      -0.0001  2.2921  0.2142
N       -1.4954  0.1440  -1.3368
N       -1.4562  -0.1441  1.2999
N       1.4767  0.1508  -1.3500
N       1.5159  -0.1505  1.3869
C       -2.8250  0.4091  -0.6195
C       -2.8007  -0.4011  0.6097
C       2.8005  0.3995  -0.6144
C       2.8252  -0.4057  0.6243
H       -1.3287  0.8845  -1.9928
H       -2.9118  1.4610  -0.4154
H       -3.6523  0.0991  -1.2418
H       -3.6081  -0.1029  1.2616
H       -2.8879  -1.4529  0.3982
H       -1.5166  0.7078  1.8246
H       -1.2800  -0.8948  1.9408
H       1.5464  -0.6970  -1.8842
H       1.3208  0.9099  -1.9847
H       3.6309  0.1013  -1.2374
H       2.8819  1.4514  -0.4057
H       2.9073  -1.4576  0.4229
H       3.6750  -0.0949  1.2179
H       1.3700  -0.9002  2.0360
H       1.5950  0.7045  1.9067
H       -1.5660  -0.7155  -1.8464
