27

Co      -0.0125  0.0000  0.0000
Cl      0.0002  -2.2699  -0.2132
Cl      -0.0001  2.2699  0.2133
N       -1.4782  0.1458  -1.3187
N       -1.4781  -0.1459  1.3186
N       1.4987  0.1525  -1.3687
N       1.4986  -0.1522  1.3687
C       -2.7842  0.4063  -0.6375
C       -2.7844  -0.4056  0.6375
C       2.7843  0.4040  -0.6422
C       2.7844  -0.4029  0.6422
H       -1.2936  0.8888  -1.9653
H       -2.8421  1.4610  -0.4271
H       -3.6060  0.1384  -1.2808
H       -3.6059  -0.1373  1.2810
H       -2.8428  -1.4603  0.4272
H       -1.5275  0.7120  1.8313
H       -1.2941  -0.8894  1.9648
H       1.5573  -0.7012  -1.8909
H       1.3348  0.9045  -2.0088
H       3.6287  0.1358  -1.2582
H       2.8354  1.4588  -0.4346
H       2.8362  -1.4577  0.4346
H       3.6286  -0.1342  1.2584
H       1.3349  -0.9045  2.0084
H       1.5568  0.7013  1.8913
H       -1.5277  -0.7124  -1.8310
