27

Co      -0.0370  0.0000  0.0000
Cl      0.0035  -2.3171  -0.2205
Cl      0.0031  2.3172  0.2206
N       -1.5070  0.1340  -1.3477
N       -1.5070  -0.1341  1.3476
N       1.5405  0.1410  -1.3699
N       1.5405  -0.1407  1.3699
C       -2.7405  0.4203  -0.6225
C       -2.7407  -0.4196  0.6224
C       2.7684  0.4213  -0.6222
C       2.7685  -0.4202  0.6223
H       -1.2865  0.8657  -1.9961
H       -2.8379  1.4746  -0.4187
H       -3.5796  0.1110  -1.2266
H       -3.5795  -0.1099  1.2267
H       -2.8385  -1.4725  0.4187
H       -1.6267  0.7166  1.8642
H       -1.2870  -0.8663  1.9956
H       1.6694  -0.7156  -1.8831
H       1.3473  0.8685  -2.0279
H       3.6187  0.1113  -1.2154
H       2.8657  1.4723  -0.4198
H       2.8665  -1.4712  0.4199
H       3.6186  -0.1098  1.2155
H       1.3475  -0.8686  2.0275
H       1.6689  0.7157  1.8835
H       -1.6270  -0.7169  -1.8638
