27

Co      0.0245  0.0244  0.0017
Cl      -0.0030  -2.2841  -0.2167
Cl      -0.0034  2.2505  0.2135
N       -1.4539  0.1413  -1.3309
N       -1.4539  -0.1465  1.3324
N       1.4409  0.1429  -1.3586
N       1.4408  -0.1476  1.3603
C       -2.7655  0.4030  -0.6424
C       -2.7657  -0.4023  0.6406
C       2.7377  0.3997  -0.6474
C       2.7379  -0.3986  0.6458
H       -1.4051  0.8623  -2.0416
H       -2.7863  1.4620  -0.4452
H       -3.5934  0.1619  -1.2894
H       -3.5911  -0.1642  1.2901
H       -2.7869  -1.4613  0.4402
H       -1.6383  0.6711  1.9019
H       -1.3870  -0.8965  2.0058
H       1.6126  -0.6939  -1.8999
H       1.3856  0.8767  -2.0517
H       3.5770  0.1566  -1.2781
H       2.7537  1.4588  -0.4540
H       2.7545  -1.4577  0.4490
H       3.5770  -0.1584  1.2765
H       1.3673  -0.9105  2.0160
H       1.6256  0.6620  1.9440
H       -1.6273  -0.7034  -1.8578
