27

Co      0.0000  -0.0031  0.0194
Cl      0.0002  -2.3044  -0.2196
Cl      -0.0001  2.3065  0.2177
N       -1.4375  0.1598  -1.3156
N       -1.4441  -0.1620  1.3339
N       1.4768  0.1598  -1.3523
N       1.4048  -0.1615  1.2971
C       -2.7552  0.3949  -0.6417
C       -2.7555  -0.3914  0.6331
C       2.7798  0.4023  -0.6517
C       2.7309  -0.3836  0.6235
H       -1.3221  0.8552  -2.0322
H       -2.7839  1.4507  -0.4224
H       -3.5901  0.1503  -1.2773
H       -3.5974  -0.1627  1.2681
H       -2.7703  -1.4450  0.4048
H       -1.4333  0.7484  1.7680
H       -1.3532  -0.8643  2.0526
H       1.4662  -0.7623  -1.7672
H       1.3714  0.8451  -2.0818
H       3.6342  0.1472  -1.2578
H       2.8086  1.4580  -0.4402
H       2.7460  -1.4373  0.3883
H       3.5532  -0.1689  1.2879
H       1.3018  -0.8734  1.9992
H       1.3839  0.7417  1.7455
H       -1.4172  -0.7557  -1.7456
