27

Co      -0.0370  0.0000  0.0000
Cl      0.0035  -2.2956  -0.2141
Cl      0.0031  2.2957  0.2142
N       -1.5188  0.1539  -1.3737
N       -1.4795  -0.1541  1.3368
N       1.5131  0.1591  -1.3591
N       1.5523  -0.1588  1.3960
C       -2.7972  0.4087  -0.6521
C       -2.7729  -0.4007  0.6423
C       2.8006  0.4023  -0.6420
C       2.8253  -0.4086  0.6519
H       -1.2619  0.8994  -1.9973
H       -2.8455  1.4659  -0.4545
H       -3.6920  0.1169  -1.1918
H       -3.6477  -0.1208  1.2116
H       -2.8216  -1.4578  0.4373
H       -1.4817  0.7049  1.8513
H       -1.2133  -0.9098  1.9453
H       1.5263  -0.7040  -1.8684
H       1.2736  0.9102  -1.9795
H       3.6869  0.1241  -1.2003
H       2.8469  1.4595  -0.4366
H       2.8723  -1.4658  0.4538
H       3.7310  -0.1176  1.1808
H       1.3229  -0.9004  2.0307
H       1.5749  0.7115  1.8909
H       -1.5311  -0.7127  -1.8731
