27

Co      0.0000  -0.0213  -0.0211
Cl      0.0002  -2.2817  -0.2151
Cl      -0.0001  2.3134  0.2206
N       -1.5364  0.1421  -1.3546
N       -1.5691  -0.1351  1.3712
N       1.5364  0.1439  -1.3545
N       1.5691  -0.1365  1.3712
C       -2.7577  0.4204  -0.6080
C       -2.7824  -0.4299  0.6281
C       2.7577  0.4204  -0.6082
C       2.7824  -0.4295  0.6283
H       -1.2145  0.8992  -1.9446
H       -2.8771  1.4693  -0.3793
H       -3.6000  0.1061  -1.2067
H       -3.6391  -0.0833  1.1960
H       -2.9166  -1.4794  0.4191
H       -1.5672  0.7665  1.8169
H       -1.2519  -0.8477  2.0102
H       1.5440  -0.7218  -1.8618
H       1.2147  0.9008  -1.9430
H       3.6000  0.1039  -1.2068
H       2.8791  1.4660  -0.3818
H       2.9188  -1.4772  0.4216
H       3.6368  -0.0805  1.1985
H       1.2518  -0.8488  2.0087
H       1.5628  0.7672  1.8184
H       -1.5459  -0.7205  -1.8603
