27

Co      0.0000  -0.0244  -0.0017
Cl      0.0002  -2.2566  -0.2116
Cl      -0.0001  2.2903  0.2150
N       -1.5223  0.1532  -1.3716
N       -1.5223  -0.1483  1.3698
N       1.5223  0.1532  -1.3715
N       1.5223  -0.1478  1.3699
C       -2.7612  0.3936  -0.6196
C       -2.7615  -0.3929  0.6213
C       2.7613  0.3935  -0.6197
C       2.7614  -0.3924  0.6215
H       -1.3202  0.9379  -1.9608
H       -2.8648  1.4429  -0.3968
H       -3.5759  0.1039  -1.2627
H       -3.5781  -0.0994  1.2622
H       -2.8655  -1.4408  0.4019
H       -1.4927  0.7290  1.8605
H       -1.3392  -0.9048  1.9956
H       1.5041  -0.6976  -1.9036
H       1.3204  0.9376  -1.9610
H       3.5758  0.1035  -1.2628
H       2.8649  1.4415  -0.3974
H       2.8658  -1.4404  0.4025
H       3.5758  -0.0986  1.2646
H       1.3391  -0.9040  1.9960
H       1.4902  0.7297  1.8602
H       -1.5041  -0.6974  -1.9040
