27

Co      0.0370  0.0213  0.0211
Cl      -0.0030  -2.3027  -0.2204
Cl      -0.0034  2.2711  0.2151
N       -1.4579  0.1617  -1.3481
N       -1.4644  -0.1689  1.3681
N       1.4636  0.1564  -1.3625
N       1.3915  -0.1632  1.3090
C       -2.7340  0.4077  -0.6740
C       -2.7342  -0.4041  0.6637
C       2.7308  0.4140  -0.6843
C       2.6819  -0.3953  0.6545
H       -1.4222  0.8330  -2.1133
H       -2.7564  1.4706  -0.4861
H       -3.5648  0.1668  -1.3175
H       -3.5699  -0.1826  1.3088
H       -2.7428  -1.4650  0.4634
H       -1.6308  0.6883  1.8727
H       -1.4348  -0.8758  2.0984
H       1.6082  -0.7358  -1.8104
H       1.4109  0.8217  -2.1294
H       3.5698  0.1611  -1.3107
H       2.7538  1.4770  -0.5052
H       2.6912  -1.4563  0.4483
H       3.4888  -0.1862  1.3390
H       1.3228  -0.8836  2.0115
H       1.5394  0.6832  1.8324
H       -1.6034  -0.7276  -1.8065
