27

Co      0.0245  0.0244  0.0017
Cl      -0.0030  -2.3063  -0.2176
Cl      -0.0034  2.2727  0.2143
N       -1.4659  0.1439  -1.3249
N       -1.4659  -0.1490  1.3265
N       1.4528  0.1454  -1.3526
N       1.4528  -0.1502  1.3543
C       -2.7825  0.4021  -0.6424
C       -2.7828  -0.4014  0.6406
C       2.7548  0.3988  -0.6474
C       2.7550  -0.3977  0.6458
H       -1.4170  0.8657  -2.0348
H       -2.8093  1.4612  -0.4478
H       -3.6062  0.1551  -1.2945
H       -3.6039  -0.1574  1.2952
H       -2.8100  -1.4605  0.4428
H       -1.6477  0.6677  1.8976
H       -1.3989  -0.9000  1.9990
H       1.6220  -0.6905  -1.8956
H       1.3976  0.8802  -2.0449
H       3.5898  0.1498  -1.2832
H       2.7767  1.4579  -0.4566
H       2.7776  -1.4568  0.4516
H       3.5898  -0.1516  1.2817
H       1.3792  -0.9139  2.0092
H       1.6349  0.6586  1.9398
H       -1.6367  -0.7000  -1.8535
