27

Co      0.0000  0.0000  0.0000
Cl      0.0002  -2.3036  -0.2148
Cl      -0.0001  2.3036  0.2149
N       -1.4105  0.1612  -1.3239
N       -1.4105  -0.1613  1.3238
N       1.4106  0.1593  -1.3238
N       1.4105  -0.1590  1.3238
C       -2.7799  0.3864  -0.6663
C       -2.7801  -0.3857  0.6663
C       2.7799  0.3863  -0.6664
C       2.7801  -0.3852  0.6665
H       -1.3024  0.9136  -1.9825
H       -2.7539  1.4483  -0.4724
H       -3.6455  0.1657  -1.2726
H       -3.6432  -0.1646  1.2750
H       -2.7546  -1.4490  0.4724
H       -1.4697  0.6833  1.8628
H       -1.3028  -0.9142  1.9821
H       1.4741  -0.6840  -1.8603
H       1.3026  0.9114  -1.9847
H       3.6455  0.1672  -1.2727
H       2.7521  1.4516  -0.4712
H       2.7530  -1.4505  0.4712
H       3.6454  -0.1656  1.2729
H       1.3027  -0.9115  1.9843
H       1.4736  0.6841  1.8606
H       -1.4722  -0.6837  -1.8625
