27

Co      0.0000  0.0000  0.0000
Cl      0.0002  -2.3055  -0.2186
Cl      -0.0001  2.3055  0.2187
N       -1.4410  0.1637  -1.3275
N       -1.4410  -0.1639  1.3274
N       1.4411  0.1637  -1.3274
N       1.4410  -0.1634  1.3275
C       -2.7621  0.4062  -0.6730
C       -2.7623  -0.4055  0.6730
C       2.7621  0.4061  -0.6731
C       2.7623  -0.4050  0.6732
H       -1.3107  0.8567  -2.0425
H       -2.7396  1.4623  -0.4407
H       -3.5894  0.2223  -1.3450
H       -3.5893  -0.2212  1.3451
H       -2.7403  -1.4630  0.4407
H       -1.4067  0.7532  1.7526
H       -1.3112  -0.8573  2.0420
H       1.4070  -0.7539  -1.7518
H       1.3109  0.8564  -2.0405
H       3.5893  0.2241  -1.3465
H       2.7383  1.4638  -0.4413
H       2.7392  -1.4627  0.4413
H       3.5893  -0.2225  1.3467
H       1.3089  -0.8565  2.0402
H       1.4065  0.7540  1.7522
H       -1.4070  -0.7536  -1.7522
