27

Co      0.0000  0.0000  0.0000
Cl      0.0002  -2.2753  -0.2170
Cl      -0.0001  2.2754  0.2171
N       -1.5556  0.1336  -1.3873
N       -1.5163  -0.1337  1.3504
N       1.5164  0.1354  -1.3504
N       1.5556  -0.1351  1.3873
C       -2.7651  0.4276  -0.6181
C       -2.7408  -0.4196  0.6083
C       2.7407  0.4202  -0.6085
C       2.7654  -0.4265  0.6183
H       -1.3183  0.8697  -2.0224
H       -2.8931  1.4751  -0.3955
H       -3.5792  0.1117  -1.2530
H       -3.5373  -0.1155  1.2705
H       -2.8692  -1.4656  0.3783
H       -1.5600  0.7309  1.8538
H       -1.2697  -0.8801  1.9704
H       1.5561  -0.7316  -1.8549
H       1.2694  0.8811  -1.9692
H       3.5350  0.1144  -1.2727
H       2.8705  1.4645  -0.3808
H       2.8959  -1.4707  0.3981
H       3.5791  -0.1079  1.2533
H       1.3187  -0.8714  2.0204
H       1.6047  0.7390  1.8774
H       -1.6071  -0.7387  -1.8756
