27

Co      -0.0125  0.0000  0.0000
Cl      0.0002  -2.2930  -0.2159
Cl      -0.0001  2.2931  0.2160
N       -1.5214  0.1479  -1.3668
N       -1.4821  -0.1481  1.3299
N       1.5026  0.1547  -1.3800
N       1.5418  -0.1544  1.4168
C       -2.7557  0.4008  -0.6279
C       -2.7314  -0.3927  0.6181
C       2.7312  0.3911  -0.6228
C       2.7559  -0.3974  0.6327
H       -1.2448  0.9006  -1.9731
H       -2.8518  1.4526  -0.4133
H       -3.6190  0.0914  -1.1978
H       -3.5771  -0.0952  1.2153
H       -2.8280  -1.4431  0.3961
H       -1.4086  0.7298  1.8206
H       -1.1961  -0.9110  1.9211
H       1.4361  -0.7190  -1.8802
H       1.2369  0.9261  -1.9651
H       3.5976  0.0937  -1.1948
H       2.8206  1.4415  -0.4036
H       2.8460  -1.4478  0.4208
H       3.6417  -0.0872  1.1753
H       1.2861  -0.9163  2.0163
H       1.4847  0.7265  1.9027
H       -1.4557  -0.7375  -1.8424
