27

Co      0.0370  -0.0031  0.0194
Cl      -0.0030  -2.2822  -0.2187
Cl      -0.0034  2.2843  0.2168
N       -1.4350  0.1421  -1.3215
N       -1.4416  -0.1442  1.3398
N       1.4407  0.1368  -1.3360
N       1.3687  -0.1385  1.2807
C       -2.7500  0.4045  -0.6457
C       -2.7503  -0.4009  0.6371
C       2.7469  0.4108  -0.6560
C       2.6979  -0.3921  0.6278
H       -1.3706  0.8706  -2.0175
H       -2.7770  1.4645  -0.4516
H       -3.5743  0.1560  -1.2932
H       -3.5794  -0.1684  1.2862
H       -2.7633  -1.4589  0.4341
H       -1.6262  0.6878  1.8877
H       -1.4017  -0.8797  2.0379
H       1.6171  -0.7033  -1.8691
H       1.3593  0.8593  -2.0358
H       3.5793  0.1481  -1.2851
H       2.7758  1.4709  -0.4708
H       2.7132  -1.4502  0.4189
H       3.4983  -0.1698  1.3151
H       1.2919  -0.8875  1.9533
H       1.5348  0.6827  1.8474
H       -1.6124  -0.6951  -1.8652
