27

Co      0.0370  0.0000  0.0000
Cl      -0.0030  -2.2833  -0.2177
Cl      -0.0034  2.2833  0.2178
N       -1.4665  0.1475  -1.3318
N       -1.4665  -0.1477  1.3317
N       1.4329  0.1423  -1.3094
N       1.4329  -0.1420  1.3094
C       -2.7363  0.4077  -0.6601
C       -2.7366  -0.4070  0.6601
C       2.7086  0.4067  -0.6606
C       2.7088  -0.4056  0.6606
H       -1.2875  0.8819  -1.9869
H       -2.7599  1.4653  -0.4460
H       -3.5698  0.1784  -1.3026
H       -3.5698  -0.1773  1.3028
H       -2.7606  -1.4646  0.4460
H       -1.5073  0.7186  1.8349
H       -1.2879  -0.8825  1.9864
H       1.4632  -0.7208  -1.8164
H       1.2271  0.8804  -1.9537
H       3.5307  0.1754  -1.3155
H       2.7327  1.4643  -0.4480
H       2.7335  -1.4632  0.4480
H       3.5306  -0.1738  1.3156
H       1.2272  -0.8805  1.9533
H       1.4627  0.7209  1.8167
H       -1.5076  -0.7190  -1.8346
