27

Co      0.0000  0.0031  -0.0194
Cl      0.0002  -2.2709  -0.2122
Cl      -0.0001  2.2689  0.2144
N       -1.4599  0.1304  -1.3358
N       -1.4927  -0.1285  1.3541
N       1.4600  0.1303  -1.3358
N       1.4926  -0.1280  1.3542
C       -2.7856  0.3956  -0.6055
C       -2.8103  -0.4051  0.6239
C       2.7856  0.3956  -0.6056
C       2.8103  -0.4047  0.6241
H       -1.2769  0.9363  -1.9138
H       -2.8315  1.4465  -0.3837
H       -3.6192  0.1364  -1.2380
H       -3.6560  -0.1169  1.2280
H       -2.8710  -1.4580  0.4184
H       -1.5740  0.6898  1.9348
H       -1.2958  -0.9185  1.9440
H       1.5415  -0.6771  -1.9341
H       1.2771  0.9360  -1.9162
H       3.6192  0.1338  -1.2368
H       2.8330  1.4465  -0.3843
H       2.8727  -1.4576  0.4191
H       3.6560  -0.1138  1.2267
H       1.2979  -0.9177  1.9465
H       1.5737  0.6905  1.9345
H       -1.5415  -0.6758  -1.9345
