27

Co      0.0000  -0.0031  0.0194
Cl      0.0002  -2.2830  -0.2132
Cl      -0.0001  2.2851  0.2112
N       -1.4267  0.1598  -1.3120
N       -1.4333  -0.1620  1.3303
N       1.4660  0.1579  -1.3488
N       1.3940  -0.1596  1.2936
C       -2.7912  0.4051  -0.6728
C       -2.7914  -0.4015  0.6641
C       2.8158  0.4124  -0.6827
C       2.7669  -0.3937  0.6546
H       -1.2599  0.9012  -1.9651
H       -2.8321  1.4681  -0.5015
H       -3.6298  0.1196  -1.2877
H       -3.6348  -0.1320  1.2807
H       -2.8185  -1.4638  0.4840
H       -1.5557  0.6707  1.8808
H       -1.2910  -0.9103  1.9855
H       1.5928  -0.6846  -1.8782
H       1.3091  0.8892  -2.0188
H       3.6739  0.1161  -1.2682
H       2.8549  1.4787  -0.5175
H       2.7923  -1.4580  0.4656
H       3.5929  -0.1379  1.2982
H       1.2418  -0.9175  1.9362
H       1.5104  0.6641  1.8565
H       -1.5418  -0.6780  -1.8583
