27

Co      0.0000  -0.0244  -0.0017
Cl      0.0002  -2.2948  -0.2151
Cl      -0.0001  2.3285  0.2185
N       -1.4993  0.1539  -1.3328
N       -1.4993  -0.1489  1.3310
N       1.4993  0.1538  -1.3327
N       1.4993  -0.1485  1.3311
C       -2.7651  0.3916  -0.6263
C       -2.7654  -0.3909  0.6279
C       2.7652  0.3916  -0.6264
C       2.7654  -0.3905  0.6281
H       -1.3289  0.9200  -1.9566
H       -2.8432  1.4478  -0.4255
H       -3.6071  0.0996  -1.2339
H       -3.6071  -0.0951  1.2358
H       -2.8439  -1.4456  0.4305
H       -1.5439  0.7173  1.8335
H       -1.3479  -0.8869  1.9915
H       1.5576  -0.6860  -1.8765
H       1.3291  0.9197  -1.9569
H       3.6071  0.0992  -1.2341
H       2.8433  1.4464  -0.4261
H       2.8441  -1.4453  0.4312
H       3.6070  -0.0943  1.2359
H       1.3478  -0.8861  1.9919
H       1.5436  0.7181  1.8331
H       -1.5576  -0.6857  -1.8769
