27

Co      0.0000  0.0031  -0.0194
Cl      0.0002  -2.3127  -0.2157
Cl      -0.0001  2.3107  0.2179
N       -1.4706  0.1313  -1.3393
N       -1.5034  -0.1294  1.3576
N       1.4707  0.1313  -1.3392
N       1.5033  -0.1289  1.3576
C       -2.7826  0.3995  -0.6013
C       -2.8073  -0.4090  0.6197
C       2.7826  0.3994  -0.6014
C       2.8073  -0.4085  0.6199
H       -1.1730  0.9413  -1.8771
H       -2.8575  1.4459  -0.3656
H       -3.6193  0.1178  -1.2211
H       -3.6583  -0.0983  1.2088
H       -2.8970  -1.4575  0.4004
H       -1.4618  0.7192  1.8992
H       -1.1918  -0.9234  1.9073
H       1.4270  -0.7066  -1.8985
H       1.1732  0.9410  -1.8796
H       3.6193  0.1152  -1.2198
H       2.8591  1.4459  -0.3663
H       2.8988  -1.4571  0.4011
H       3.6560  -0.0952  1.2098
H       1.1939  -0.9226  1.9099
H       1.4592  0.7200  1.8989
H       -1.4270  -0.7053  -1.8989
