27

Co      -0.0125  0.0000  0.0000
Cl      0.0002  -2.2930  -0.2159
Cl      -0.0001  2.2931  0.2160
N       -1.4791  0.1421  -1.3742
N       -1.4398  -0.1422  1.3373
N       1.4603  0.1488  -1.3874
N       1.4996  -0.1485  1.4242
C       -2.7877  0.4088  -0.6219
C       -2.7634  -0.4007  0.6121
C       2.7632  0.3991  -0.6168
C       2.7879  -0.4054  0.6267
H       -1.3151  0.8880  -2.0226
H       -2.8590  1.4606  -0.4143
H       -3.6342  0.1110  -1.2218
H       -3.5900  -0.1148  1.2416
H       -2.8351  -1.4525  0.3972
H       -1.5052  0.7067  1.8665
H       -1.2664  -0.8983  1.9706
H       1.5351  -0.6959  -1.9261
H       1.3071  0.9134  -2.0146
H       3.6128  0.1132  -1.2174
H       2.8291  1.4510  -0.4046
H       2.8545  -1.4573  0.4218
H       3.6569  -0.1068  1.1979
H       1.3564  -0.9037  2.0658
H       1.5836  0.7034  1.9486
H       -1.5546  -0.7144  -1.8883
