27

Co      0.0000  -0.0031  0.0194
Cl      0.0002  -2.2608  -0.2123
Cl      -0.0001  2.2629  0.2104
N       -1.4434  0.1550  -1.3432
N       -1.4107  -0.1572  1.3247
N       1.4435  0.1530  -1.3431
N       1.4107  -0.1548  1.3247
C       -2.7841  0.4119  -0.6686
C       -2.7598  -0.4010  0.6502
C       2.7842  0.4119  -0.6687
C       2.7598  -0.4005  0.6504
H       -1.2453  0.9019  -1.9774
H       -2.8530  1.4681  -0.4782
H       -3.5938  0.1217  -1.3180
H       -3.5570  -0.1390  1.3284
H       -2.8148  -1.4565  0.4434
H       -1.4517  0.6885  1.8627
H       -1.2274  -0.9209  1.9462
H       1.4865  -0.7025  -1.8601
H       1.2455  0.8997  -1.9795
H       3.5938  0.1232  -1.3181
H       2.8512  1.4714  -0.4769
H       2.8132  -1.4580  0.4422
H       3.5569  -0.1400  1.3285
H       1.2273  -0.9182  1.9485
H       1.4533  0.6893  1.8605
H       -1.4846  -0.7032  -1.8624
