27

Co      0.0000  -0.0244  -0.0017
Cl      0.0002  -2.2984  -0.2151
Cl      -0.0001  2.3321  0.2185
N       -1.4980  0.1365  -1.3628
N       -1.4980  -0.1316  1.3610
N       1.4980  0.1364  -1.3628
N       1.4979  -0.1311  1.3611
C       -2.7764  0.3860  -0.6036
C       -2.7766  -0.3853  0.6052
C       2.7765  0.3860  -0.6037
C       2.7766  -0.3849  0.6054
H       -1.3153  0.9599  -1.9192
H       -2.8470  1.4393  -0.3983
H       -3.6381  0.0919  -1.1843
H       -3.6381  -0.0874  1.1861
H       -2.8477  -1.4371  0.4034
H       -1.5724  0.6865  1.9421
H       -1.3343  -0.9268  1.9540
H       1.5861  -0.6551  -1.9852
H       1.3155  0.9596  -1.9216
H       3.6381  0.0893  -1.1830
H       2.8486  1.4379  -0.3990
H       2.8494  -1.4368  0.4041
H       3.6381  -0.0843  1.1848
H       1.3364  -0.9260  1.9566
H       1.5721  0.6872  1.9418
H       -1.5861  -0.6548  -1.9856
