27

Co      0.0000  0.0244  0.0017
Cl      0.0002  -2.3259  -0.2203
Cl      -0.0001  2.2923  0.2170
N       -1.4533  0.1407  -1.3482
N       -1.4533  -0.1458  1.3498
N       1.4533  0.1406  -1.3482
N       1.4532  -0.1453  1.3499
C       -2.7486  0.4027  -0.6358
C       -2.7488  -0.4020  0.6341
C       2.7486  0.4027  -0.6359
C       2.7488  -0.4016  0.6343
H       -1.3640  0.8795  -2.0220
H       -2.8032  1.4550  -0.4216
H       -3.5368  0.1531  -1.3322
H       -3.5368  -0.1553  1.3307
H       -2.8039  -1.4543  0.4166
H       -1.5551  0.6835  1.9093
H       -1.3460  -0.9137  1.9862
H       1.5419  -0.7161  -1.8648
H       1.3642  0.8792  -2.0223
H       3.5368  0.1527  -1.3324
H       2.8033  1.4550  -0.4222
H       2.8042  -1.4539  0.4172
H       3.5367  -0.1545  1.3308
H       1.3459  -0.9129  1.9866
H       1.5548  0.6843  1.9090
H       -1.5419  -0.7159  -1.8652
