27

Co      0.0000  0.0244  0.0017
Cl      0.0002  -2.2805  -0.2167
Cl      -0.0001  2.2469  0.2135
N       -1.4274  0.1408  -1.3245
N       -1.4274  -0.1459  1.3261
N       1.4274  0.1407  -1.3244
N       1.4274  -0.1454  1.3261
C       -2.7723  0.4176  -0.6599
C       -2.7725  -0.4169  0.6582
C       2.7723  0.4176  -0.6601
C       2.7725  -0.4165  0.6585
H       -1.2800  0.8496  -2.0225
H       -2.7682  1.4777  -0.4608
H       -3.6300  0.1802  -1.2694
H       -3.6277  -0.1824  1.2701
H       -2.7689  -1.4784  0.4558
H       -1.5673  0.6897  1.8696
H       -1.2619  -0.8838  1.9867
H       1.5563  -0.7223  -1.8252
H       1.2802  0.8493  -2.0228
H       3.6300  0.1798  -1.2695
H       2.7683  1.4791  -0.4615
H       2.7691  -1.4780  0.4565
H       3.6299  -0.1816  1.2680
H       1.2618  -0.8831  1.9871
H       1.5693  0.6904  1.8693
H       -1.5564  -0.7221  -1.8255
