27

Co      -0.0370  0.0000  0.0000
Cl      0.0035  -2.2717  -0.2170
Cl      0.0031  2.2718  0.2171
N       -1.4810  0.1316  -1.3307
N       -1.4810  -0.1317  1.3306
N       1.5146  0.1386  -1.3529
N       1.5145  -0.1383  1.3529
C       -2.7684  0.4178  -0.6306
C       -2.7686  -0.4171  0.6306
C       2.7963  0.4187  -0.6303
C       2.7964  -0.4176  0.6304
H       -1.2913  0.8606  -1.9927
H       -2.7921  1.4706  -0.3994
H       -3.6072  0.1847  -1.2658
H       -3.6071  -0.1836  1.2659
H       -2.7927  -1.4699  0.3994
H       -1.5426  0.7352  1.8263
H       -1.2917  -0.8611  1.9922
H       1.5853  -0.7342  -1.8453
H       1.3521  0.8634  -2.0245
H       3.6462  0.1850  -1.2546
H       2.8199  1.4698  -0.4005
H       2.8207  -1.4687  0.4006
H       3.6462  -0.1835  1.2547
H       1.3522  -0.8635  2.0241
H       1.5848  0.7343  1.8457
H       -1.5428  -0.7356  -1.8260
