27

Co      0.0370  -0.0031  0.0194
Cl      -0.0030  -2.2858  -0.2187
Cl      -0.0034  2.2879  0.2168
N       -1.4793  0.1446  -1.3754
N       -1.4466  -0.1468  1.3569
N       1.4458  0.1393  -1.3530
N       1.4130  -0.1411  1.3346
C       -2.7576  0.4116  -0.6488
C       -2.7333  -0.4007  0.6304
C       2.7299  0.4106  -0.6493
C       2.7055  -0.3993  0.6309
H       -1.3096  0.8795  -2.0311
H       -2.8053  1.4674  -0.4429
H       -3.6104  0.1416  -1.2500
H       -3.5736  -0.1589  1.2604
H       -2.7671  -1.4544  0.4082
H       -1.5084  0.7071  1.8794
H       -1.2916  -0.8984  2.0000
H       1.4970  -0.7226  -1.8608
H       1.2492  0.8779  -1.9979
H       3.5713  0.1385  -1.2615
H       2.7795  1.4664  -0.4449
H       2.7415  -1.4530  0.4102
H       3.5344  -0.1554  1.2718
H       1.2309  -0.8964  1.9669
H       1.4638  0.7094  1.8612
H       -1.5414  -0.7218  -1.8790
