27

Co      0.0000  0.0244  0.0017
Cl      0.0002  -2.3063  -0.2176
Cl      -0.0001  2.2727  0.2143
N       -1.4592  0.1435  -1.3540
N       -1.4592  -0.1486  1.3556
N       1.4592  0.1434  -1.3539
N       1.4591  -0.1481  1.3556
C       -2.7847  0.4178  -0.6533
C       -2.7849  -0.4171  0.6516
C       2.7847  0.4178  -0.6534
C       2.7849  -0.4167  0.6518
H       -1.2792  0.8717  -2.0157
H       -2.8145  1.4711  -0.4364
H       -3.6084  0.1735  -1.3065
H       -3.6083  -0.1757  1.3050
H       -2.8152  -1.4718  0.4314
H       -1.5198  0.6972  1.8899
H       -1.2611  -0.9059  1.9799
H       1.5065  -0.7298  -1.8455
H       1.2794  0.8714  -2.0159
H       3.6083  0.1731  -1.3067
H       2.8146  1.4726  -0.4370
H       2.8155  -1.4715  0.4320
H       3.6083  -0.1749  1.3052
H       1.2610  -0.9051  1.9802
H       1.5195  0.6979  1.8896
H       -1.5066  -0.7296  -1.8459
