27

Co      0.0000  -0.0031  0.0194
Cl      0.0002  -2.3080  -0.2196
Cl      -0.0001  2.3101  0.2177
N       -1.4342  0.1608  -1.3527
N       -1.4408  -0.1630  1.3711
N       1.4735  0.1607  -1.3895
N       1.4015  -0.1625  1.3343
C       -2.7711  0.4064  -0.6568
C       -2.7714  -0.4028  0.6482
C       2.7957  0.4137  -0.6667
C       2.7468  -0.3951  0.6386
H       -1.3083  0.8591  -2.0610
H       -2.7727  1.4607  -0.4290
H       -3.6079  0.1879  -1.3022
H       -3.6152  -0.2003  1.2929
H       -2.7591  -1.4565  0.4114
H       -1.4324  0.7454  1.8081
H       -1.3394  -0.8683  2.0814
H       1.4653  -0.7594  -1.8074
H       1.3576  0.8490  -2.1105
H       3.6520  0.1848  -1.2827
H       2.7974  1.4695  -0.4468
H       2.7348  -1.4488  0.3949
H       3.5710  -0.2065  1.3127
H       1.2880  -0.8773  2.0280
H       1.3830  0.7388  1.7856
H       -1.4163  -0.7528  -1.7857
