27

Co      0.0125  0.0213  0.0211
Cl      0.0002  -2.2776  -0.2140
Cl      -0.0001  2.2460  0.2087
N       -1.4250  0.1581  -1.3422
N       -1.4316  -0.1654  1.3622
N       1.4438  0.1494  -1.3289
N       1.3718  -0.1562  1.2753
C       -2.7741  0.4048  -0.6759
C       -2.7744  -0.4012  0.6656
C       2.7987  0.4144  -0.6813
C       2.7498  -0.3957  0.6514
H       -1.2776  0.8889  -2.0112
H       -2.8057  1.4678  -0.5049
H       -3.6283  0.1236  -1.2721
H       -3.6334  -0.1393  1.2634
H       -2.7920  -1.4636  0.4823
H       -1.5678  0.6525  1.9376
H       -1.2903  -0.9317  1.9963
H       1.5618  -0.7097  -1.8310
H       1.2860  0.8610  -2.0217
H       3.6497  0.1224  -1.2753
H       2.8353  1.4807  -0.5140
H       2.7727  -1.4600  0.4571
H       3.5687  -0.1475  1.3037
H       1.2001  -0.9229  1.9037
H       1.4930  0.6572  1.8530
H       -1.5405  -0.6917  -1.8715
