27

Co      0.0000  0.0244  0.0017
Cl      0.0002  -2.3223  -0.2203
Cl      -0.0001  2.2887  0.2170
N       -1.4242  0.1415  -1.3212
N       -1.4242  -0.1467  1.3228
N       1.4242  0.1415  -1.3211
N       1.4242  -0.1462  1.3228
C       -2.7715  0.4168  -0.6599
C       -2.7717  -0.4161  0.6582
C       2.7716  0.4167  -0.6601
C       2.7717  -0.4156  0.6585
H       -1.2759  0.8504  -2.0184
H       -2.7699  1.4769  -0.4625
H       -3.6268  0.1760  -1.2727
H       -3.6245  -0.1783  1.2734
H       -2.7705  -1.4775  0.4575
H       -1.5616  0.6890  1.8671
H       -1.2578  -0.8846  1.9826
H       1.5506  -0.7216  -1.8227
H       1.2761  0.8501  -2.0186
H       3.6267  0.1756  -1.2728
H       2.7700  1.4783  -0.4631
H       2.7708  -1.4772  0.4581
H       3.6267  -0.1774  1.2713
H       1.2577  -0.8838  1.9829
H       1.5635  0.6897  1.8668
H       -1.5506  -0.7213  -1.8231
