27

Co      -0.0125  -0.0213  -0.0211
Cl      0.0002  -2.2540  -0.2105
Cl      -0.0001  2.2857  0.2160
N       -1.4832  0.1297  -1.3368
N       -1.4767  -0.1227  1.3166
N       1.4645  0.1364  -1.3500
N       1.5364  -0.1291  1.4036
C       -2.7956  0.4051  -0.6031
C       -2.7958  -0.4073  0.6133
C       2.7711  0.3955  -0.5979
C       2.8203  -0.4119  0.6279
H       -1.1719  0.9445  -1.8678
H       -2.8715  1.4516  -0.3666
H       -3.6332  0.1223  -1.2185
H       -3.6281  -0.1044  1.2275
H       -2.8865  -1.4558  0.3893
H       -1.4214  0.7380  1.8380
H       -1.1601  -0.9028  1.8818
H       1.4298  -0.6820  -1.9414
H       1.1639  0.9699  -1.8619
H       3.6118  0.1224  -1.2141
H       2.8417  1.4420  -0.3569
H       2.9059  -1.4605  0.4139
H       3.6927  -0.0941  1.1861
H       1.2523  -0.9081  1.9791
H       1.4976  0.7347  1.9201
H       -1.4493  -0.6994  -1.9036
