27

Co      -0.0370  0.0031  -0.0194
Cl      0.0035  -2.2905  -0.2149
Cl      0.0031  2.2885  0.2170
N       -1.4646  0.1482  -1.3445
N       -1.4580  -0.1463  1.3259
N       1.4589  0.1534  -1.3299
N       1.5308  -0.1510  1.3851
C       -2.7525  0.4057  -0.6405
C       -2.7527  -0.4078  0.6491
C       2.7558  0.3993  -0.6305
C       2.8050  -0.4157  0.6588
H       -1.2104  0.8930  -1.9712
H       -2.7900  1.4618  -0.4312
H       -3.6340  0.1333  -1.2032
H       -3.6265  -0.1187  1.2127
H       -2.8049  -1.4660  0.4488
H       -1.4604  0.7254  1.8215
H       -1.1801  -0.8849  1.9498
H       1.4722  -0.7111  -1.8386
H       1.2221  0.9037  -1.9533
H       3.6288  0.1404  -1.2116
H       2.7914  1.4554  -0.4133
H       2.8556  -1.4740  0.4653
H       3.7098  -0.1155  1.1819
H       1.2897  -0.8755  2.0352
H       1.5535  0.7319  1.8611
H       -1.4770  -0.7188  -1.8433
