27

Co      -0.0125  0.0000  0.0000
Cl      0.0002  -2.2939  -0.2178
Cl      -0.0001  2.2940  0.2179
N       -1.5330  0.1335  -1.3360
N       -1.4937  -0.1336  1.2991
N       1.5142  0.1421  -1.3492
N       1.5535  -0.1418  1.3861
C       -2.8094  0.4269  -0.6288
C       -2.7851  -0.4189  0.6190
C       2.7849  0.4173  -0.6237
C       2.8096  -0.4235  0.6336
H       -1.2377  0.8559  -1.9742
H       -2.8681  1.4754  -0.3867
H       -3.6535  0.1635  -1.2465
H       -3.6116  -0.1673  1.2641
H       -2.8442  -1.4673  0.3696
H       -1.4283  0.7632  1.7567
H       -1.1891  -0.8663  1.9222
H       1.4540  -0.7525  -1.8181
H       1.2298  0.8833  -1.9643
H       3.6321  0.1638  -1.2435
H       2.8387  1.4639  -0.3789
H       2.8641  -1.4702  0.3961
H       3.6762  -0.1573  1.2241
H       1.2791  -0.8735  2.0155
H       1.5026  0.7599  1.8406
H       -1.4754  -0.7709  -1.7784
