27

Co      -0.0370  -0.0244  -0.0017
Cl      0.0035  -2.2726  -0.2142
Cl      0.0031  2.3063  0.2177
N       -1.4562  0.1444  -1.3334
N       -1.4562  -0.1395  1.3316
N       1.4898  0.1495  -1.3556
N       1.4898  -0.1442  1.3539
C       -2.7456  0.3920  -0.6035
C       -2.7458  -0.3913  0.6052
C       2.7735  0.3930  -0.6033
C       2.7736  -0.3919  0.6051
H       -1.2853  0.9131  -1.9553
H       -2.8415  1.4453  -0.4007
H       -3.5862  0.0751  -1.2002
H       -3.5861  -0.0706  1.2020
H       -2.8422  -1.4431  0.4058
H       -1.5166  0.7244  1.8368
H       -1.3042  -0.8800  1.9902
H       1.5746  -0.6915  -1.8977
H       1.3460  0.9140  -1.9890
H       3.6252  0.0773  -1.1876
H       2.8689  1.4449  -0.4000
H       2.8698  -1.4438  0.4051
H       3.6252  -0.0724  1.1894
H       1.3647  -0.8804  2.0240
H       1.5606  0.7235  1.8543
H       -1.5303  -0.6928  -1.8803
