27

Co      -0.0125  0.0000  0.0000
Cl      0.0002  -2.2734  -0.2132
Cl      -0.0001  2.2735  0.2133
N       -1.4943  0.1439  -1.3715
N       -1.4550  -0.1440  1.3346
N       1.4755  0.1506  -1.3847
N       1.5147  -0.1503  1.4215
C       -2.8055  0.4088  -0.6219
C       -2.7812  -0.4007  0.6121
C       2.7810  0.3991  -0.6168
C       2.8057  -0.4054  0.6267
H       -1.3311  0.8906  -2.0200
H       -2.8804  1.4606  -0.4152
H       -3.6503  0.1083  -1.2236
H       -3.6061  -0.1121  1.2433
H       -2.8565  -1.4525  0.3981
H       -1.5204  0.7040  1.8647
H       -1.2824  -0.9010  1.9680
H       1.5502  -0.6932  -1.9244
H       1.3232  0.9161  -2.0119
H       3.6288  0.1106  -1.2191
H       2.8505  1.4510  -0.4055
H       2.8759  -1.4573  0.4227
H       3.6729  -0.1041  1.1996
H       1.3724  -0.9063  2.0631
H       1.5988  0.7007  1.9468
H       -1.5697  -0.7117  -1.8865
