27

Co      0.0000  0.0244  0.0017
Cl      0.0002  -2.2982  -0.2157
Cl      -0.0001  2.2646  0.2124
N       -1.3937  0.1537  -1.3290
N       -1.3937  -0.1589  1.3306
N       1.3938  0.1518  -1.3290
N       1.3937  -0.1565  1.3307
C       -2.7628  0.3848  -0.6623
C       -2.7630  -0.3841  0.6606
C       2.7629  0.3848  -0.6624
C       2.7630  -0.3837  0.6608
H       -1.3724  0.8982  -2.0192
H       -2.7381  1.4443  -0.4627
H       -3.5842  0.1830  -1.3338
H       -3.5819  -0.1852  1.3345
H       -2.7388  -1.4450  0.4576
H       -1.5034  0.6586  1.9108
H       -1.3543  -0.9324  1.9834
H       1.4943  -0.6913  -1.8645
H       1.3726  0.8960  -2.0213
H       3.5842  0.1845  -1.3339
H       2.7364  1.4476  -0.4614
H       2.7372  -1.4465  0.4564
H       3.5841  -0.1863  1.3324
H       1.3543  -0.9298  1.9856
H       1.5073  0.6594  1.9086
H       -1.4925  -0.6910  -1.8667
