27

Co      0.0000  0.0000  0.0000
Cl      0.0002  -2.2894  -0.2159
Cl      -0.0001  2.2895  0.2160
N       -1.4733  0.1474  -1.3464
N       -1.4732  -0.1475  1.3463
N       1.4733  0.1473  -1.3463
N       1.4732  -0.1470  1.3463
C       -2.7664  0.4052  -0.6398
C       -2.7666  -0.4045  0.6397
C       2.7664  0.4051  -0.6399
C       2.7666  -0.4040  0.6400
H       -1.2981  0.8941  -1.9896
H       -2.8173  1.4599  -0.4297
H       -3.6013  0.1399  -1.2677
H       -3.6013  -0.1388  1.2678
H       -2.8180  -1.4591  0.4297
H       -1.5271  0.7090  1.8638
H       -1.2985  -0.8947  1.9891
H       1.5274  -0.7096  -1.8631
H       1.2983  0.8938  -1.9898
H       3.6013  0.1396  -1.2678
H       2.8174  1.4599  -0.4303
H       2.8183  -1.4588  0.4303
H       3.6012  -0.1380  1.2680
H       1.2984  -0.8939  1.9895
H       1.5269  0.7097  1.8635
H       -1.5274  -0.7093  -1.8635
