27

Co      0.0000  0.0000  0.0000
Cl      0.0002  -2.2894  -0.2159
Cl      -0.0001  2.2895  0.2160
N       -1.4669  0.1679  -1.3536
N       -1.4669  -0.1680  1.3535
N       1.4670  0.1678  -1.3535
N       1.4669  -0.1676  1.3535
C       -2.7775  0.4050  -0.6754
C       -2.7777  -0.4043  0.6754
C       2.7776  0.4049  -0.6755
C       2.7777  -0.4038  0.6756
H       -1.3411  0.8690  -2.0602
H       -2.7526  1.4611  -0.4440
H       -3.6162  0.2220  -1.3336
H       -3.6161  -0.2209  1.3337
H       -2.7533  -1.4618  0.4440
H       -1.4350  0.7434  1.7867
H       -1.3415  -0.8695  2.0597
H       1.4353  -0.7440  -1.7859
H       1.3413  0.8687  -2.0582
H       3.6161  0.2238  -1.3352
H       2.7513  1.4626  -0.4446
H       2.7522  -1.4615  0.4446
H       3.6161  -0.2222  1.3353
H       1.3392  -0.8687  2.0578
H       1.4348  0.7441  1.7863
H       -1.4353  -0.7437  -1.7863
