27

Co      -0.0370  0.0000  0.0000
Cl      0.0035  -2.3152  -0.2168
Cl      0.0031  2.3153  0.2169
N       -1.5037  0.1522  -1.3764
N       -1.4644  -0.1523  1.3395
N       1.4980  0.1573  -1.3618
N       1.5372  -0.1570  1.3986
C       -2.7794  0.4087  -0.6521
C       -2.7551  -0.4007  0.6423
C       2.7827  0.4023  -0.6420
C       2.8074  -0.4086  0.6519
H       -1.2459  0.8967  -2.0000
H       -2.8241  1.4659  -0.4536
H       -3.6759  0.1196  -1.1900
H       -3.6317  -0.1234  1.2098
H       -2.8002  -1.4578  0.4364
H       -1.4666  0.7076  1.8531
H       -1.1972  -0.9071  1.9480
H       1.5111  -0.7067  -1.8702
H       1.2576  0.9075  -1.9821
H       3.6708  0.1268  -1.1985
H       2.8255  1.4595  -0.4357
H       2.8509  -1.4658  0.4529
H       3.7149  -0.1203  1.1790
H       1.3068  -0.8977  2.0334
H       1.5597  0.7141  1.8927
H       -1.5159  -0.7153  -1.8749
