27

Co      0.0000  0.0000  0.0000
Cl      0.0002  -2.2930  -0.2159
Cl      -0.0001  2.2931  0.2160
N       -1.4840  0.1498  -1.3751
N       -1.4840  -0.1499  1.3750
N       1.4840  0.1497  -1.3750
N       1.4840  -0.1494  1.3751
C       -2.7640  0.4040  -0.6422
C       -2.7642  -0.4033  0.6421
C       2.7640  0.4039  -0.6423
C       2.7642  -0.4028  0.6424
H       -1.3124  0.9037  -2.0099
H       -2.8090  1.4587  -0.4321
H       -3.6121  0.1423  -1.2545
H       -3.6121  -0.1412  1.2547
H       -2.8096  -1.4580  0.4321
H       -1.5403  0.7018  1.8997
H       -1.3129  -0.9042  2.0094
H       1.5405  -0.7024  -1.8990
H       1.3126  0.9034  -2.0101
H       3.6121  0.1420  -1.2547
H       2.8091  1.4587  -0.4327
H       2.8099  -1.4576  0.4327
H       3.6120  -0.1404  1.2548
H       1.3128  -0.9035  2.0098
H       1.5400  0.7025  1.8994
H       -1.5405  -0.7022  -1.8994
