27

Co      0.0000  0.0031  -0.0194
Cl      0.0002  -2.2923  -0.2186
Cl      -0.0001  2.2904  0.2208
N       -1.4907  0.1358  -1.3537
N       -1.4842  -0.1339  1.3352
N       1.4515  0.1376  -1.3168
N       1.5234  -0.1353  1.3721
C       -2.7645  0.4193  -0.6310
C       -2.7647  -0.4214  0.6395
C       2.7400  0.4119  -0.6213
C       2.7893  -0.4284  0.6496
H       -1.2482  0.8580  -2.0104
H       -2.7692  1.4735  -0.3987
H       -3.6629  0.1833  -1.1881
H       -3.6555  -0.1687  1.1977
H       -2.7841  -1.4777  0.4163
H       -1.5050  0.7527  1.8047
H       -1.2179  -0.8499  1.9890
H       1.4707  -0.7400  -1.8059
H       1.1993  0.8694  -1.9572
H       3.6187  0.1859  -1.2079
H       2.7466  1.4643  -0.3840
H       2.8109  -1.4828  0.4360
H       3.6996  -0.1610  1.1782
H       1.2669  -0.8412  2.0391
H       1.5520  0.7608  1.8284
H       -1.5217  -0.7461  -1.8265
