27

Co      0.0370  -0.0031  0.0194
Cl      -0.0030  -2.2662  -0.2161
Cl      -0.0034  2.2683  0.2141
N       -1.4752  0.1505  -1.3418
N       -1.4818  -0.1527  1.3601
N       1.4809  0.1453  -1.3563
N       1.4089  -0.1470  1.3011
C       -2.7540  0.4033  -0.6710
C       -2.7542  -0.3997  0.6624
C       2.7508  0.4096  -0.6813
C       2.7019  -0.3909  0.6531
H       -1.4024  0.8857  -2.0266
H       -2.7557  1.4662  -0.4778
H       -3.5897  0.1858  -1.3162
H       -3.5948  -0.1982  1.3092
H       -2.7420  -1.4606  0.4602
H       -1.6502  0.6751  1.9132
H       -1.4335  -0.8948  2.0470
H       1.6411  -0.6906  -1.8946
H       1.3911  0.8744  -2.0449
H       3.5947  0.1778  -1.3094
H       2.7530  1.4726  -0.4969
H       2.6905  -1.4519  0.4450
H       3.5137  -0.1996  1.3395
H       1.3237  -0.9026  1.9624
H       1.5588  0.6700  1.8729
H       -1.6364  -0.6824  -1.8908
