27

Co      0.0000  0.0244  0.0017
Cl      0.0002  -2.3001  -0.2194
Cl      -0.0001  2.2665  0.2161
N       -1.4305  0.1357  -1.3255
N       -1.4305  -0.1409  1.3271
N       1.4306  0.1356  -1.3254
N       1.4305  -0.1404  1.3271
C       -2.7339  0.4048  -0.6334
C       -2.7341  -0.4041  0.6317
C       2.7339  0.4048  -0.6335
C       2.7341  -0.4037  0.6319
H       -1.3377  0.8665  -2.0085
H       -2.7886  1.4571  -0.4166
H       -3.5132  0.1575  -1.3403
H       -3.5132  -0.1598  1.3387
H       -2.7892  -1.4564  0.4116
H       -1.5325  0.6941  1.8777
H       -1.3197  -0.9007  1.9727
H       1.5193  -0.7267  -1.8332
H       1.3379  0.8662  -2.0088
H       3.5132  0.1571  -1.3404
H       2.7887  1.4571  -0.4173
H       2.7895  -1.4560  0.4123
H       3.5131  -0.1589  1.3389
H       1.3196  -0.8999  1.9731
H       1.5323  0.6949  1.8774
H       -1.5193  -0.7265  -1.8336
