27

Co      0.0000  -0.0031  0.0194
Cl      0.0002  -2.2804  -0.2150
Cl      -0.0001  2.2825  0.2131
N       -1.4162  0.1723  -1.3234
N       -1.4228  -0.1744  1.3417
N       1.4555  0.1703  -1.3602
N       1.3835  -0.1721  1.3050
C       -2.7400  0.3827  -0.6511
C       -2.7403  -0.3791  0.6425
C       2.7646  0.3900  -0.6610
C       2.7157  -0.3713  0.6329
H       -1.3027  0.8874  -2.0165
H       -2.7946  1.4403  -0.4517
H       -3.5679  0.1084  -1.2816
H       -3.5752  -0.1208  1.2723
H       -2.7810  -1.4346  0.4341
H       -1.4014  0.7237  1.7985
H       -1.3338  -0.8965  2.0369
H       1.4362  -0.7376  -1.7959
H       1.3520  0.8754  -2.0680
H       3.6121  0.1072  -1.2621
H       2.8174  1.4495  -0.4676
H       2.7548  -1.4288  0.4157
H       3.5310  -0.1289  1.2921
H       1.2824  -0.9037  1.9854
H       1.3539  0.7171  1.7742
H       -1.3853  -0.7310  -1.7760
