27

Co      0.0000  0.0244  0.0017
Cl      0.0002  -2.3037  -0.2194
Cl      -0.0001  2.2701  0.2161
N       -1.4260  0.1609  -1.3546
N       -1.4260  -0.1661  1.3562
N       1.4260  0.1608  -1.3545
N       1.4259  -0.1656  1.3562
C       -2.7449  0.4012  -0.6804
C       -2.7451  -0.4004  0.6787
C       2.7449  0.4011  -0.6805
C       2.7451  -0.4000  0.6789
H       -1.4223  0.8419  -2.1198
H       -2.6838  1.4617  -0.4627
H       -3.5840  0.2442  -1.3478
H       -3.5817  -0.2465  1.3485
H       -2.6845  -1.4624  0.4577
H       -1.5237  0.7033  1.8477
H       -1.4042  -0.8761  2.0840
H       1.5127  -0.7359  -1.8032
H       1.4225  0.8416  -2.1178
H       3.5840  0.2460  -1.3494
H       2.6825  1.4631  -0.4634
H       2.6834  -1.4620  0.4583
H       3.5840  -0.2478  1.3478
H       1.4019  -0.8753  2.0821
H       1.5257  0.7040  1.8474
H       -1.5127  -0.7356  -1.8036
