27

Co      0.0125  0.0000  0.0000
Cl      0.0002  -2.2868  -0.2177
Cl      -0.0001  2.2869  0.2178
N       -1.4568  0.1506  -1.3676
N       -1.4568  -0.1507  1.3675
N       1.4363  0.1437  -1.3174
N       1.4363  -0.1434  1.3174
C       -2.7223  0.4002  -0.6691
C       -2.7225  -0.3995  0.6691
C       2.7224  0.4024  -0.6647
C       2.7225  -0.4013  0.6648
H       -1.3919  0.8947  -2.0446
H       -2.7108  1.4621  -0.4722
H       -3.5691  0.1927  -1.3040
H       -3.5669  -0.1916  1.3064
H       -2.7115  -1.4614  0.4722
H       -1.6196  0.6763  1.9252
H       -1.3923  -0.8952  2.0441
H       1.5925  -0.6883  -1.8641
H       1.3511  0.8784  -2.0016
H       3.5464  0.1946  -1.3283
H       2.7163  1.4644  -0.4660
H       2.7171  -1.4633  0.4660
H       3.5463  -0.1930  1.3285
H       1.3513  -0.8785  2.0012
H       1.5920  0.6884  1.8645
H       -1.6221  -0.6767  -1.9248
