27

Co      0.0000  -0.0244  -0.0017
Cl      0.0002  -2.2752  -0.2124
Cl      -0.0001  2.3089  0.2159
N       -1.5166  0.1402  -1.3257
N       -1.5166  -0.1352  1.3239
N       1.5167  0.1401  -1.3257
N       1.5166  -0.1348  1.3240
C       -2.7852  0.3872  -0.6240
C       -2.7854  -0.3865  0.6257
C       2.7852  0.3872  -0.6242
C       2.7854  -0.3861  0.6259
H       -1.3184  0.9559  -1.8876
H       -2.8424  1.4433  -0.4197
H       -3.6320  0.1168  -1.2335
H       -3.6319  -0.1124  1.2353
H       -2.8431  -1.4412  0.4248
H       -1.5701  0.6881  1.8959
H       -1.3374  -0.9228  1.9224
H       1.5838  -0.6567  -1.9389
H       1.3186  0.9556  -1.8900
H       3.6319  0.1142  -1.2337
H       2.8426  1.4419  -0.4204
H       2.8434  -1.4408  0.4254
H       3.6319  -0.1093  1.2355
H       1.3395  -0.9220  1.9250
H       1.5698  0.6888  1.8955
H       -1.5838  -0.6565  -1.9393
