27

Co      0.0000  0.0000  0.0000
Cl      0.0002  -2.2894  -0.2159
Cl      -0.0001  2.2895  0.2160
N       -1.4939  0.1311  -1.3335
N       -1.4939  -0.1313  1.3334
N       1.4939  0.1311  -1.3335
N       1.4938  -0.1308  1.3335
C       -2.7438  0.4054  -0.6270
C       -2.7440  -0.4046  0.6270
C       2.7439  0.4053  -0.6272
C       2.7440  -0.4042  0.6272
H       -1.2565  0.9222  -1.9104
H       -2.8477  1.4615  -0.4382
H       -3.5750  0.0879  -1.2361
H       -3.5750  -0.0868  1.2362
H       -2.8484  -1.4593  0.4383
H       -1.6149  0.6717  1.9324
H       -1.2569  -0.9227  1.9099
H       1.6152  -0.6723  -1.9317
H       1.2567  0.9219  -1.9129
H       3.5750  0.0853  -1.2362
H       2.8478  1.4601  -0.4389
H       2.8487  -1.4590  0.4389
H       3.5750  -0.0838  1.2364
H       1.2590  -0.9219  1.9125
H       1.6147  0.6724  1.9321
H       -1.6152  -0.6721  -1.9321
