27

Co      0.0125  0.0000  0.0000
Cl      0.0002  -2.2894  -0.2159
Cl      -0.0001  2.2895  0.2160
N       -1.4525  0.1660  -1.3575
N       -1.4917  -0.1661  1.3942
N       1.4713  0.1591  -1.3441
N       1.4320  -0.1588  1.3073
C       -2.7584  0.3851  -0.6323
C       -2.7831  -0.3917  0.6421
C       2.7830  0.3947  -0.6377
C       2.7586  -0.3862  0.6280
H       -1.4365  0.8895  -2.0683
H       -2.7814  1.4373  -0.4020
H       -3.5614  0.1702  -1.3252
H       -3.6055  -0.1642  1.3057
H       -2.8066  -1.4440  0.4192
H       -1.5291  0.7279  1.8546
H       -1.4861  -0.8802  2.1193
H       1.4998  -0.7399  -1.7936
H       1.4448  0.8634  -2.0746
H       3.5827  0.1694  -1.3284
H       2.8128  1.4470  -0.4130
H       2.7891  -1.4385  0.3958
H       3.5385  -0.1727  1.3482
H       1.3937  -0.8733  2.0227
H       1.4502  0.7326  1.7719
H       -1.4803  -0.7209  -1.8322
