27

Co      0.0370  0.0000  0.0000
Cl      -0.0030  -2.2876  -0.2122
Cl      -0.0034  2.2876  0.2123
N       -1.4807  0.1650  -1.3594
N       -1.4807  -0.1651  1.3593
N       1.4471  0.1578  -1.3371
N       1.4471  -0.1575  1.3371
C       -2.7821  0.3926  -0.6490
C       -2.7824  -0.3918  0.6489
C       2.7544  0.3915  -0.6494
C       2.7546  -0.3904  0.6495
H       -1.3209  0.9303  -1.9838
H       -2.8640  1.4491  -0.4608
H       -3.6115  0.0925  -1.2714
H       -3.6115  -0.0915  1.2715
H       -2.8646  -1.4484  0.4609
H       -1.5268  0.6801  1.8995
H       -1.3213  -0.9309  1.9833
H       1.4846  -0.6823  -1.8791
H       1.2605  0.9269  -1.9525
H       3.5724  0.0914  -1.2829
H       2.8364  1.4500  -0.4609
H       2.8372  -1.4489  0.4610
H       3.5723  -0.0898  1.2830
H       1.2606  -0.9270  1.9521
H       1.4841  0.6824  1.8795
H       -1.5270  -0.6805  -1.8992
