27

Co      0.0370  -0.0031  0.0194
Cl      -0.0030  -2.2884  -0.2169
Cl      -0.0034  2.2905  0.2150
N       -1.4897  0.1685  -1.3470
N       -1.4962  -0.1706  1.3654
N       1.4954  0.1632  -1.3615
N       1.4234  -0.1650  1.3063
C       -2.7731  0.3918  -0.6620
C       -2.7733  -0.3882  0.6534
C       2.7699  0.3981  -0.6723
C       2.7210  -0.3795  0.6441
H       -1.4570  0.8758  -2.0701
H       -2.7828  1.4480  -0.4382
H       -3.5765  0.1935  -1.3601
H       -3.5838  -0.2059  1.3508
H       -2.7692  -1.4423  0.4206
H       -1.5158  0.7228  1.8248
H       -1.4881  -0.8849  2.0905
H       1.5045  -0.7383  -1.8063
H       1.4457  0.8644  -2.0862
H       3.5815  0.1878  -1.3533
H       2.7802  1.4544  -0.4573
H       2.7176  -1.4336  0.4054
H       3.5005  -0.2095  1.3834
H       1.3761  -0.8927  2.0037
H       1.4222  0.7177  1.7845
H       -1.4997  -0.7301  -1.8024
