27

Co      0.0000  0.0244  0.0017
Cl      0.0002  -2.3001  -0.2194
Cl      -0.0001  2.2665  0.2161
N       -1.4215  0.1380  -1.3187
N       -1.4215  -0.1431  1.3203
N       1.4215  0.1379  -1.3186
N       1.4215  -0.1426  1.3203
C       -2.7361  0.4025  -0.6424
C       -2.7364  -0.4018  0.6407
C       2.7362  0.4025  -0.6425
C       2.7364  -0.4014  0.6409
H       -1.3649  0.8574  -2.0289
H       -2.7569  1.4616  -0.4460
H       -3.5584  0.1598  -1.2950
H       -3.5562  -0.1620  1.2958
H       -2.7576  -1.4609  0.4410
H       -1.6026  0.6760  1.8890
H       -1.3468  -0.8917  1.9931
H       1.5917  -0.7086  -1.8445
H       1.3651  0.8571  -2.0291
H       3.5584  0.1594  -1.2952
H       2.7570  1.4616  -0.4467
H       2.7579  -1.4605  0.4416
H       3.5584  -0.1612  1.2936
H       1.3467  -0.8909  1.9934
H       1.6046  0.6768  1.8887
H       -1.5917  -0.7084  -1.8449
