27

Co      -0.0370  0.0031  -0.0194
Cl      0.0035  -2.2727  -0.2160
Cl      0.0031  2.2708  0.2181
N       -1.4700  0.1283  -1.3456
N       -1.4634  -0.1264  1.3271
N       1.4643  0.1353  -1.3310
N       1.5362  -0.1330  1.3863
C       -2.7799  0.4164  -0.6034
C       -2.7801  -0.4185  0.6120
C       2.7832  0.4100  -0.5934
C       2.8324  -0.4264  0.6217
H       -1.3052  0.8620  -2.0117
H       -2.8192  1.4653  -0.3677
H       -3.6223  0.1614  -1.2267
H       -3.6149  -0.1468  1.2363
H       -2.8342  -1.4695  0.3853
H       -1.5387  0.7415  1.8239
H       -1.2750  -0.8540  1.9903
H       1.5486  -0.7273  -1.8429
H       1.3169  0.8746  -1.9919
H       3.6172  0.1667  -1.2338
H       2.8240  1.4571  -0.3517
H       2.8882  -1.4756  0.4037
H       3.6981  -0.1418  1.2040
H       1.3846  -0.8465  2.0738
H       1.6299  0.7480  1.8653
H       -1.5553  -0.7349  -1.8457
