27

Co      -0.0125  0.0000  0.0000
Cl      0.0002  -2.2717  -0.2170
Cl      -0.0001  2.2718  0.2171
N       -1.5155  0.1323  -1.3151
N       -1.5155  -0.1325  1.3150
N       1.5360  0.1410  -1.3652
N       1.5359  -0.1407  1.3652
C       -2.7617  0.4114  -0.6113
C       -2.7620  -0.4107  0.6112
C       2.7618  0.4091  -0.6159
C       2.7620  -0.4080  0.6160
H       -1.2294  0.8631  -1.9468
H       -2.8356  1.4613  -0.3714
H       -3.6116  0.1375  -1.2132
H       -3.6138  -0.1364  1.2111
H       -2.8363  -1.4592  0.3714
H       -1.4576  0.7661  1.7677
H       -1.2298  -0.8636  1.9464
H       1.4833  -0.7553  -1.8292
H       1.2706  0.8806  -1.9885
H       3.6343  0.1330  -1.1906
H       2.8308  1.4558  -0.3807
H       2.8316  -1.4547  0.3807
H       3.6343  -0.1314  1.1907
H       1.2707  -0.8806  1.9881
H       1.4828  0.7554  1.8296
H       -1.4556  -0.7665  -1.7674
