27

Co      0.0125  -0.0031  0.0194
Cl      0.0002  -2.2866  -0.2132
Cl      -0.0001  2.2887  0.2112
N       -1.4502  0.1810  -1.3770
N       -1.4568  -0.1832  1.3953
N       1.4690  0.1722  -1.3637
N       1.3970  -0.1740  1.3084
C       -2.7908  0.3922  -0.6684
C       -2.7911  -0.3886  0.6598
C       2.8154  0.4018  -0.6738
C       2.7665  -0.3831  0.6457
H       -1.3373  0.9054  -2.0574
H       -2.8244  1.4484  -0.4651
H       -3.6259  0.1354  -1.3020
H       -3.6333  -0.1478  1.2927
H       -2.8108  -1.4441  0.4476
H       -1.4398  0.7090  1.8632
H       -1.3685  -0.9145  2.0778
H       1.4451  -0.7343  -1.8003
H       1.3456  0.8774  -2.0656
H       3.6473  0.1364  -1.3052
H       2.8540  1.4613  -0.4742
H       2.7915  -1.4406  0.4223
H       3.5663  -0.1582  1.3352
H       1.2761  -0.9057  1.9831
H       1.3627  0.7137  1.7786
H       -1.4237  -0.7163  -1.8408
