27

Co      0.0125  0.0244  0.0017
Cl      0.0002  -2.3259  -0.2203
Cl      -0.0001  2.2923  0.2170
N       -1.4756  0.1638  -1.3720
N       -1.4756  -0.1690  1.3736
N       1.4551  0.1569  -1.3218
N       1.4551  -0.1617  1.3235
C       -2.7349  0.4060  -0.6631
C       -2.7351  -0.4053  0.6614
C       2.7350  0.4083  -0.6587
C       2.7351  -0.4072  0.6571
H       -1.4125  0.8571  -2.1015
H       -2.7876  1.4612  -0.4545
H       -3.5279  0.1620  -1.3574
H       -3.5279  -0.1643  1.3558
H       -2.7883  -1.4604  0.4495
H       -1.5545  0.7015  1.8673
H       -1.3944  -0.8913  2.0657
H       1.5117  -0.7455  -1.7625
H       1.3717  0.8409  -2.0563
H       3.5051  0.1661  -1.3817
H       2.7931  1.4635  -0.4483
H       2.7940  -1.4624  0.4433
H       3.5050  -0.1679  1.3802
H       1.3512  -0.8746  2.0206
H       1.5247  0.7136  1.8066
H       -1.5413  -0.7339  -1.8232
