27

Co      -0.0370  0.0000  0.0000
Cl      0.0035  -2.3135  -0.2205
Cl      0.0031  2.3136  0.2206
N       -1.5319  0.1163  -1.3397
N       -1.4927  -0.1164  1.3028
N       1.5262  0.1233  -1.3251
N       1.5655  -0.1230  1.3620
C       -2.7551  0.4255  -0.6186
C       -2.7308  -0.4174  0.6087
C       2.7584  0.4191  -0.6085
C       2.7831  -0.4253  0.6184
H       -1.1703  0.8886  -1.9027
H       -2.8608  1.4754  -0.3985
H       -3.6030  0.1117  -1.2074
H       -3.5611  -0.1155  1.2250
H       -2.8369  -1.4659  0.3814
H       -1.4936  0.7237  1.8483
H       -1.1216  -0.8990  1.8506
H       1.5340  -0.7228  -1.8673
H       1.1820  0.9013  -1.8851
H       3.5979  0.1147  -1.2159
H       2.8641  1.4657  -0.3825
H       2.8894  -1.4720  0.3997
H       3.6421  -0.1082  1.1964
H       1.2334  -0.8915  1.9363
H       1.5826  0.7302  1.8897
H       -1.5407  -0.7314  -1.8701
