27

Co      0.0000  0.0000  0.0000
Cl      0.0002  -2.2930  -0.2159
Cl      -0.0001  2.2931  0.2160
N       -1.4981  0.1512  -1.3667
N       -1.4981  -0.1513  1.3666
N       1.4981  0.1511  -1.3666
N       1.4981  -0.1508  1.3666
C       -2.7457  0.3913  -0.6295
C       -2.7459  -0.3906  0.6295
C       2.7457  0.3913  -0.6296
C       2.7459  -0.3902  0.6297
H       -1.3406  0.9093  -2.0015
H       -2.8118  1.4474  -0.4278
H       -3.6050  0.1071  -1.2165
H       -3.6050  -0.1060  1.2167
H       -2.8124  -1.4453  0.4278
H       -1.5544  0.6976  1.8955
H       -1.3410  -0.9099  2.0010
H       1.5546  -0.6982  -1.8948
H       1.3408  0.9090  -2.0017
H       3.6050  0.1068  -1.2166
H       2.8119  1.4460  -0.4285
H       2.8127  -1.4449  0.4285
H       3.6050  -0.1052  1.2168
H       1.3409  -0.9091  2.0014
H       1.5541  0.6983  1.8952
H       -1.5546  -0.6979  -1.8952
