27

Co      0.0000  0.0244  0.0017
Cl      0.0002  -2.3008  -0.2138
Cl      -0.0001  2.2672  0.2106
N       -1.4300  0.1583  -1.3204
N       -1.4300  -0.1635  1.3220
N       1.4300  0.1564  -1.3203
N       1.4300  -0.1611  1.3220
C       -2.7912  0.4037  -0.6693
C       -2.7914  -0.4030  0.6676
C       2.7913  0.4036  -0.6694
C       2.7914  -0.4025  0.6678
H       -1.2845  0.8886  -1.9932
H       -2.8250  1.4656  -0.4953
H       -3.6334  0.1246  -1.2839
H       -3.6312  -0.1269  1.2846
H       -2.8256  -1.4663  0.4902
H       -1.5542  0.6582  1.8916
H       -1.2664  -0.9229  1.9574
H       1.5451  -0.6908  -1.8452
H       1.2847  0.8865  -1.9953
H       3.6334  0.1261  -1.2840
H       2.8232  1.4689  -0.4940
H       2.8240  -1.4678  0.4890
H       3.6334  -0.1279  1.2825
H       1.2663  -0.9202  1.9597
H       1.5581  0.6589  1.8894
H       -1.5433  -0.6905  -1.8475
