27

Co      0.0245  0.0213  0.0211
Cl      -0.0030  -2.3017  -0.2186
Cl      -0.0034  2.2701  0.2133
N       -1.4378  0.1391  -1.2954
N       -1.4443  -0.1463  1.3154
N       1.4640  0.1406  -1.3600
N       1.3919  -0.1474  1.3064
C       -2.8032  0.4174  -0.6569
C       -2.8035  -0.4139  0.6466
C       2.8000  0.4215  -0.6718
C       2.7511  -0.4028  0.6419
H       -1.3592  0.8463  -2.0125
H       -2.8220  1.4761  -0.4584
H       -3.5988  0.1812  -1.3504
H       -3.6039  -0.1969  1.3417
H       -2.8084  -1.4719  0.4358
H       -1.6286  0.6756  1.8770
H       -1.3718  -0.8890  1.9975
H       1.6357  -0.7117  -1.8750
H       1.3888  0.8508  -2.0741
H       3.6266  0.1710  -1.3194
H       2.8140  1.4816  -0.4844
H       2.7514  -1.4609  0.4274
H       3.5456  -0.1961  1.3478
H       1.3030  -0.9128  1.9562
H       1.5668  0.6592  1.8971
H       -1.6013  -0.7149  -1.8108
