27

Co      -0.0370  -0.0244  -0.0017
Cl      0.0035  -2.2530  -0.2116
Cl      0.0031  2.2867  0.2150
N       -1.5209  0.1306  -1.3457
N       -1.4816  -0.1257  1.3071
N       1.5152  0.1357  -1.3311
N       1.5544  -0.1304  1.3663
C       -2.7577  0.4108  -0.6222
C       -2.7334  -0.4027  0.6141
C       2.7610  0.4044  -0.6122
C       2.7857  -0.4107  0.6238
H       -1.2304  0.9452  -1.8788
H       -2.9001  1.4601  -0.4165
H       -3.5484  0.0809  -1.2781
H       -3.5064  -0.0814  1.2973
H       -2.8762  -1.4506  0.4044
H       -1.5065  0.7002  1.8769
H       -1.2002  -0.9219  1.8621
H       1.5623  -0.6673  -1.9378
H       1.2421  0.9559  -1.8631
H       3.5433  0.0859  -1.2865
H       2.9015  1.4524  -0.3986
H       2.9269  -1.4586  0.4209
H       3.5874  -0.0760  1.2687
H       1.3120  -0.9125  1.9497
H       1.5974  0.7067  1.9165
H       -1.5671  -0.6760  -1.9425
