27

Co      0.0000  0.0000  0.0000
Cl      0.0002  -2.3090  -0.2186
Cl      -0.0001  2.3091  0.2187
N       -1.4518  0.1661  -1.3562
N       -1.4518  -0.1663  1.3561
N       1.4518  0.1661  -1.3562
N       1.4518  -0.1658  1.3562
C       -2.7597  0.4050  -0.6754
C       -2.7599  -0.4043  0.6754
C       2.7598  0.4049  -0.6755
C       2.7599  -0.4038  0.6756
H       -1.3251  0.8663  -2.0628
H       -2.7313  1.4611  -0.4431
H       -3.6001  0.2247  -1.3318
H       -3.6001  -0.2236  1.3320
H       -2.7319  -1.4618  0.4431
H       -1.4199  0.7461  1.7884
H       -1.3255  -0.8668  2.0624
H       1.4201  -0.7467  -1.7877
H       1.3253  0.8660  -2.0608
H       3.6001  0.2265  -1.3334
H       2.7299  1.4626  -0.4437
H       2.7308  -1.4615  0.4437
H       3.6000  -0.2249  1.3335
H       1.3232  -0.8661  2.0605
H       1.4196  0.7468  1.7881
H       -1.4201  -0.7464  -1.7881
