27

Co      0.0125  0.0000  0.0000
Cl      0.0002  -2.2814  -0.2140
Cl      -0.0001  2.2814  0.2141
N       -1.4027  0.1589  -1.3281
N       -1.4420  -0.1590  1.3648
N       1.4216  0.1501  -1.3147
N       1.3822  -0.1498  1.2779
C       -2.7257  0.3846  -0.6483
C       -2.7505  -0.3913  0.6581
C       2.7504  0.3942  -0.6537
C       2.7260  -0.3857  0.6440
H       -1.3441  0.9228  -1.9846
H       -2.7749  1.4455  -0.4702
H       -3.5384  0.1140  -1.3020
H       -3.5803  -0.1080  1.2848
H       -2.8001  -1.4522  0.4874
H       -1.6127  0.6619  1.9351
H       -1.3936  -0.9135  2.0357
H       1.5875  -0.6739  -1.8722
H       1.3524  0.8948  -1.9950
H       3.5598  0.1129  -1.3053
H       2.8046  1.4571  -0.4793
H       2.7808  -1.4486  0.4621
H       3.5155  -0.1162  1.3251
H       1.3034  -0.9047  1.9431
H       1.5379  0.6667  1.8505
H       -1.5662  -0.6549  -1.9127
