27

Co      0.0370  0.0000  0.0000
Cl      -0.0030  -2.3072  -0.2148
Cl      -0.0034  2.3072  0.2149
N       -1.4376  0.1616  -1.3638
N       -1.4375  -0.1617  1.3637
N       1.4040  0.1545  -1.3414
N       1.4040  -0.1542  1.3414
C       -2.7849  0.4005  -0.6658
C       -2.7851  -0.3998  0.6658
C       2.7572  0.3995  -0.6663
C       2.7573  -0.3984  0.6664
H       -1.3766  0.9178  -2.0274
H       -2.8154  1.4601  -0.4839
H       -3.5992  0.1448  -1.3279
H       -3.5969  -0.1437  1.3303
H       -2.8161  -1.4608  0.4839
H       -1.6040  0.6568  1.9387
H       -1.3770  -0.9184  2.0269
H       1.5641  -0.6590  -1.9183
H       1.3162  0.9144  -1.9961
H       3.5601  0.1437  -1.3393
H       2.7878  1.4624  -0.4840
H       2.7886  -1.4613  0.4840
H       3.5600  -0.1421  1.3395
H       1.3163  -0.9145  1.9957
H       1.5636  0.6591  1.9187
H       -1.6065  -0.6571  -1.9384
