27

Co      0.0245  0.0000  0.0000
Cl      -0.0030  -2.3090  -0.2186
Cl      -0.0034  2.3091  0.2187
N       -1.4432  0.1644  -1.3087
N       -1.4825  -0.1645  1.3454
N       1.4694  0.1660  -1.3732
N       1.4301  -0.1657  1.3364
C       -2.7388  0.4029  -0.6617
C       -2.7636  -0.4095  0.6715
C       2.7356  0.4069  -0.6765
C       2.7112  -0.3985  0.6668
H       -1.3952  0.8545  -2.0519
H       -2.7635  1.4648  -0.4653
H       -3.5478  0.1720  -1.3382
H       -3.5897  -0.1660  1.3210
H       -2.7887  -1.4714  0.4825
H       -1.6350  0.7137  1.8158
H       -1.4447  -0.8452  2.1029
H       1.6228  -0.7045  -1.8576
H       1.4248  0.8591  -2.1112
H       3.5756  0.1640  -1.3087
H       2.7540  1.4689  -0.4913
H       2.7303  -1.4604  0.4741
H       3.5314  -0.1674  1.3285
H       1.3737  -0.8690  2.0593
H       1.5732  0.6973  1.8359
H       -1.5884  -0.7067  -1.7934
