27

Co      -0.0125  0.0000  0.0000
Cl      0.0002  -2.2956  -0.2141
Cl      -0.0001  2.2957  0.2142
N       -1.5062  0.1464  -1.3656
N       -1.4669  -0.1465  1.3286
N       1.4874  0.1532  -1.3787
N       1.5267  -0.1529  1.4156
C       -2.8226  0.4079  -0.6219
C       -2.7983  -0.3999  0.6121
C       2.7981  0.3983  -0.6168
C       2.8228  -0.4045  0.6267
H       -1.3430  0.8940  -2.0131
H       -2.9034  1.4598  -0.4178
H       -3.6631  0.1015  -1.2287
H       -3.6189  -0.1053  1.2485
H       -2.8795  -1.4517  0.4006
H       -1.5298  0.7006  1.8605
H       -1.2944  -0.9044  1.9611
H       1.5596  -0.6898  -1.9201
H       1.3351  0.9195  -2.0051
H       3.6416  0.1037  -1.2243
H       2.8736  1.4502  -0.4081
H       2.8989  -1.4564  0.4253
H       3.6857  -0.0973  1.2048
H       1.3844  -0.9097  2.0563
H       1.6082  0.6973  1.9426
H       -1.5791  -0.7083  -1.8823
