27

Co      0.0000  0.0244  0.0017
Cl      0.0002  -2.2841  -0.2167
Cl      -0.0001  2.2505  0.2135
N       -1.4472  0.1409  -1.3600
N       -1.4472  -0.1461  1.3616
N       1.4472  0.1408  -1.3599
N       1.4472  -0.1456  1.3616
C       -2.7676  0.4187  -0.6533
C       -2.7678  -0.4180  0.6516
C       2.7677  0.4187  -0.6534
C       2.7678  -0.4176  0.6518
H       -1.2672  0.8682  -2.0225
H       -2.7915  1.4720  -0.4338
H       -3.5956  0.1803  -1.3014
H       -3.5955  -0.1826  1.2999
H       -2.7921  -1.4727  0.4288
H       -1.5104  0.7006  1.8942
H       -1.2491  -0.9025  1.9867
H       1.4972  -0.7332  -1.8497
H       1.2674  0.8679  -2.0228
H       3.5955  0.1799  -1.3016
H       2.7916  1.4734  -0.4345
H       2.7924  -1.4723  0.4295
H       3.5955  -0.1817  1.3000
H       1.2491  -0.9017  1.9871
H       1.5101  0.7013  1.8939
H       -1.4972  -0.7330  -1.8501
