27

Co      0.0125  -0.0031  0.0194
Cl      0.0002  -2.3044  -0.2196
Cl      -0.0001  2.3065  0.2177
N       -1.4312  0.1465  -1.3379
N       -1.4377  -0.1486  1.3562
N       1.4500  0.1396  -1.3245
N       1.3780  -0.1413  1.2693
C       -2.7715  0.4171  -0.6657
C       -2.7717  -0.4135  0.6571
C       2.7961  0.4267  -0.6710
C       2.7472  -0.4080  0.6429
H       -1.2718  0.8709  -2.0119
H       -2.7736  1.4782  -0.4722
H       -3.6345  0.1698  -1.2652
H       -3.6396  -0.1822  1.2582
H       -2.7600  -1.4740  0.4546
H       -1.5778  0.6958  1.8870
H       -1.3029  -0.8800  2.0323
H       1.5834  -0.7211  -1.8260
H       1.2801  0.8448  -2.0204
H       3.6559  0.1668  -1.2685
H       2.8051  1.4892  -0.4832
H       2.7425  -1.4685  0.4313
H       3.5748  -0.1885  1.2985
H       1.2128  -0.8731  1.9379
H       1.5011  0.7005  1.8043
H       -1.5640  -0.7031  -1.8646
