27

Co      -0.0370  0.0031  -0.0194
Cl      0.0035  -2.2709  -0.2122
Cl      0.0031  2.2689  0.2144
N       -1.4980  0.1467  -1.3401
N       -1.4915  -0.1448  1.3216
N       1.4923  0.1519  -1.3255
N       1.5643  -0.1495  1.3808
C       -2.7497  0.3928  -0.6139
C       -2.7499  -0.3950  0.6225
C       2.7530  0.3864  -0.6039
C       2.8023  -0.4029  0.6322
H       -1.3002  0.9152  -1.9518
H       -2.8531  1.4411  -0.3888
H       -3.5492  0.1052  -1.2776
H       -3.5441  -0.0907  1.2849
H       -2.8681  -1.4439  0.4064
H       -1.4559  0.7244  1.8260
H       -1.2699  -0.9071  1.9305
H       1.4655  -0.7102  -1.8431
H       1.3119  0.9259  -1.9340
H       3.5441  0.1124  -1.2861
H       2.8545  1.4334  -0.3709
H       2.9188  -1.4519  0.4229
H       3.6251  -0.0875  1.2564
H       1.3795  -0.8977  2.0158
H       1.5468  0.7309  1.8656
H       -1.4703  -0.7178  -1.8478
