27

Co      0.0370  0.0213  0.0211
Cl      -0.0030  -2.2972  -0.2167
Cl      -0.0034  2.2656  0.2114
N       -1.4072  0.1553  -1.3310
N       -1.4138  -0.1625  1.3510
N       1.4130  0.1481  -1.3454
N       1.3409  -0.1549  1.2919
C       -2.7767  0.3867  -0.6664
C       -2.7769  -0.3832  0.6561
C       2.7735  0.3931  -0.6767
C       2.7246  -0.3744  0.6469
H       -1.3874  0.8945  -2.0255
H       -2.7582  1.4473  -0.4708
H       -3.6001  0.1775  -1.3328
H       -3.6052  -0.1933  1.3241
H       -2.7446  -1.4431  0.4482
H       -1.5337  0.6544  1.9313
H       -1.4000  -0.9373  2.0105
H       1.5131  -0.7019  -1.8672
H       1.3761  0.8813  -2.0457
H       3.6051  0.1715  -1.3246
H       2.7551  1.4570  -0.4881
H       2.6926  -1.4362  0.4311
H       3.5241  -0.1966  1.3530
H       1.2902  -0.9433  1.9278
H       1.4442  0.6493  1.8892
H       -1.5064  -0.6937  -1.8652
