27

Co      0.0000  0.0000  0.0000
Cl      0.0002  -2.2913  -0.2197
Cl      -0.0001  2.2914  0.2198
N       -1.5057  0.1315  -1.3429
N       -1.5057  -0.1317  1.3428
N       1.5058  0.1333  -1.3428
N       1.5057  -0.1331  1.3428
C       -2.7439  0.4079  -0.6087
C       -2.7442  -0.4072  0.6087
C       2.7440  0.4078  -0.6088
C       2.7442  -0.4067  0.6089
H       -1.3066  0.8732  -1.9833
H       -2.8181  1.4553  -0.3642
H       -3.5584  0.1512  -1.2655
H       -3.5607  -0.1501  1.2634
H       -2.8187  -1.4532  0.3642
H       -1.4936  0.7509  1.8221
H       -1.3070  -0.8738  1.9828
H       1.4897  -0.7516  -1.8232
H       1.3068  0.8748  -1.9816
H       3.5584  0.1489  -1.2657
H       2.8201  1.4521  -0.3667
H       2.8209  -1.4510  0.3667
H       3.5583  -0.1474  1.2658
H       1.3070  -0.8748  1.9813
H       1.4892  0.7517  1.8236
H       -1.4916  -0.7513  -1.8218
