27

Co      0.0000  0.0000  0.0000
Cl      0.0002  -2.2540  -0.2181
Cl      -0.0001  2.2541  0.2182
N       -1.5223  0.1210  -1.3373
N       -1.5223  -0.1211  1.3372
N       1.5223  0.1246  -1.3372
N       1.5222  -0.1244  1.3373
C       -2.7982  0.4314  -0.6210
C       -2.7985  -0.4307  0.6210
C       2.7983  0.4314  -0.6212
C       2.7985  -0.4303  0.6212
H       -1.3451  0.8283  -2.0292
H       -2.7926  1.4824  -0.3677
H       -3.6521  0.2320  -1.2525
H       -3.6521  -0.2309  1.2527
H       -2.7933  -1.4816  0.3678
H       -1.6024  0.7598  1.8078
H       -1.3456  -0.8288  2.0287
H       1.5989  -0.7605  -1.8109
H       1.3453  0.8317  -2.0257
H       3.6521  0.2279  -1.2527
H       2.7965  1.4786  -0.3721
H       2.7973  -1.4775  0.3722
H       3.6520  -0.2263  1.2528
H       1.3455  -0.8318  2.0253
H       1.5983  0.7606  1.8112
H       -1.6026  -0.7602  -1.8075
