27

Co      0.0000  0.0000  0.0000
Cl      0.0002  -2.3249  -0.2138
Cl      -0.0001  2.3249  0.2139
N       -1.4242  0.1738  -1.3555
N       -1.4242  -0.1739  1.3554
N       1.4243  0.1700  -1.3554
N       1.4242  -0.1697  1.3554
C       -2.7345  0.3789  -0.6585
C       -2.7347  -0.3782  0.6585
C       2.7346  0.3789  -0.6586
C       2.7347  -0.3778  0.6587
H       -1.2510  0.9600  -1.9500
H       -2.8420  1.4374  -0.4916
H       -3.5505  0.0479  -1.2829
H       -3.5505  -0.0468  1.2830
H       -2.8427  -1.4367  0.4916
H       -1.4519  0.6581  1.9199
H       -1.2515  -0.9605  1.9495
H       1.4559  -0.6587  -1.9154
H       1.2512  0.9559  -1.9539
H       3.5505  0.0512  -1.2830
H       2.8384  1.4412  -0.4885
H       2.8392  -1.4401  0.4885
H       3.5504  -0.0497  1.2831
H       1.2514  -0.9560  1.9536
H       1.4554  0.6588  1.9158
H       -1.4521  -0.6585  -1.9195
