27

Co      0.0741  -0.0061  0.0389
Cl      -0.0063  -2.2750  -0.2216
Cl      -0.0067  2.2792  0.2176
N       -1.4065  0.1416  -1.2966
N       -1.4196  -0.1458  1.3333
N       1.4179  0.1311  -1.3256
N       1.2739  -0.1349  1.2151
C       -2.7337  0.4086  -0.6613
C       -2.7339  -0.4022  0.6441
C       2.7273  0.4213  -0.6818
C       2.6293  -0.3850  0.6254
H       -1.2976  0.8374  -2.0212
H       -2.7221  1.4789  -0.4930
H       -3.6443  0.1478  -1.1879
H       -3.6545  -0.1737  1.1737
H       -2.6942  -1.4684  0.4578
H       -1.6526  0.6908  1.8678
H       -1.3594  -0.8551  2.0624
H       1.6342  -0.7212  -1.8315
H       1.2748  0.8150  -2.0576
H       3.6544  0.1324  -1.1714
H       2.7196  1.4917  -0.5307
H       2.5936  -1.4513  0.4268
H       3.4924  -0.1774  1.2312
H       1.1399  -0.8715  1.8928
H       1.4701  0.6800  1.7877
H       -1.6246  -0.7051  -1.8233
