27

Co      0.0250  -0.0061  0.0389
Cl      0.0002  -2.3266  -0.2233
Cl      -0.0001  2.3307  0.2193
N       -1.4569  0.1486  -1.3834
N       -1.4700  -0.1528  1.4201
N       1.4945  0.1349  -1.3568
N       1.3505  -0.1387  1.2464
C       -2.7307  0.4058  -0.6529
C       -2.7310  -0.3993  0.6357
C       2.7799  0.4250  -0.6636
C       2.6819  -0.3887  0.6072
H       -1.2763  0.8961  -2.0173
H       -2.7821  1.4625  -0.4523
H       -3.5846  0.1295  -1.2508
H       -3.5994  -0.1554  1.2321
H       -2.7541  -1.4520  0.4171
H       -1.5428  0.6960  1.9510
H       -1.3381  -0.9138  2.0586
H       1.5493  -0.7460  -1.8296
H       1.2927  0.8443  -2.0341
H       3.6275  0.1239  -1.2572
H       2.8449  1.4818  -0.4736
H       2.7190  -1.4414  0.3698
H       3.4654  -0.1689  1.3170
H       1.1579  -0.9008  1.8694
H       1.3852  0.7047  1.7858
H       -1.5103  -0.7103  -1.9065
