27

Co      0.0000  -0.0488  -0.0034
Cl      0.0002  -2.2238  -0.2072
Cl      -0.0001  2.2912  0.2140
N       -1.5518  0.1519  -1.4137
N       -1.5518  -0.1420  1.4103
N       1.5518  0.1519  -1.4137
N       1.5518  -0.1415  1.4103
C       -2.7797  0.4419  -0.6291
C       -2.7800  -0.4412  0.6325
C       2.7798  0.4418  -0.6292
C       2.7799  -0.4407  0.6327
H       -1.1997  0.9488  -1.9402
H       -3.0060  1.4830  -0.4113
H       -3.5083  0.0648  -1.3510
H       -3.5128  -0.0569  1.3500
H       -3.0067  -1.4823  0.4214
H       -1.5554  0.7445  1.8830
H       -1.2371  -0.8820  2.0104
H       1.5780  -0.6811  -1.9698
H       1.1999  0.9485  -1.9405
H       3.5083  0.0644  -1.3511
H       3.0061  1.4830  -0.4119
H       3.0070  -1.4819  0.4220
H       3.5082  -0.0561  1.3546
H       1.2370  -0.8812  2.0108
H       1.5506  0.7452  1.8826
H       -1.5781  -0.6809  -1.9702
