27

Co      -0.0741  -0.0488  -0.0034
Cl      0.0068  -2.3073  -0.2142
Cl      0.0064  2.3747  0.2211
N       -1.4851  0.1571  -1.3713
N       -1.4851  -0.1472  1.3678
N       1.5523  0.1675  -1.4158
N       1.5522  -0.1571  1.4124
C       -2.7679  0.4001  -0.6432
C       -2.7682  -0.3994  0.6466
C       2.8236  0.4020  -0.6426
C       2.8237  -0.4009  0.6461
H       -1.2716  0.9525  -1.9478
H       -2.8208  1.4548  -0.4359
H       -3.6094  0.1318  -1.2612
H       -3.6093  -0.1240  1.2648
H       -2.8215  -1.4541  0.4460
H       -1.5144  0.7214  1.8644
H       -1.3090  -0.8858  2.0180
H       1.6302  -0.6549  -1.9868
H       1.3930  0.9547  -2.0149
H       3.6875  0.1367  -1.2387
H       2.8727  1.4568  -0.4338
H       2.8735  -1.4557  0.4439
H       3.6875  -0.1284  1.2423
H       1.4301  -0.8874  2.0853
H       1.6028  0.7189  1.8997
H       -1.5416  -0.6578  -1.9516
