27

Co      0.0250  0.0488  0.0034
Cl      0.0002  -2.3551  -0.2246
Cl      -0.0001  2.2879  0.2180
N       -1.4419  0.1408  -1.3427
N       -1.4419  -0.1510  1.3460
N       1.4010  0.1271  -1.2425
N       1.4009  -0.1369  1.2459
C       -2.7355  0.4053  -0.6412
C       -2.7358  -0.4046  0.6378
C       2.7356  0.4098  -0.6322
C       2.7357  -0.4087  0.6289
H       -1.2968  0.8519  -2.0328
H       -2.7845  1.4600  -0.4350
H       -3.5705  0.1349  -1.2694
H       -3.5705  -0.1405  1.2661
H       -2.7852  -1.4593  0.4249
H       -1.5136  0.6853  1.9009
H       -1.2602  -0.9198  1.9617
H       1.4277  -0.7727  -1.6920
H       1.2150  0.8197  -1.9466
H       3.5249  0.1390  -1.3150
H       2.7983  1.4646  -0.4219
H       2.7991  -1.4635  0.4119
H       3.5249  -0.1442  1.3118
H       1.1782  -0.8871  1.8756
H       1.4541  0.7088  1.7799
H       -1.4869  -0.7496  -1.8130
