27

Co      0.0250  0.0488  0.0034
Cl      0.0002  -2.3623  -0.2246
Cl      -0.0001  2.2950  0.2180
N       -1.4635  0.1456  -1.4001
N       -1.4635  -0.1558  1.4034
N       1.4225  0.1319  -1.2999
N       1.4225  -0.1417  1.3033
C       -2.7307  0.4029  -0.6460
C       -2.7310  -0.4022  0.6426
C       2.7308  0.4074  -0.6370
C       2.7310  -0.4063  0.6337
H       -1.3255  0.8711  -2.0735
H       -2.7678  1.4576  -0.4398
H       -3.5920  0.1396  -1.2430
H       -3.5920  -0.1453  1.2398
H       -2.7684  -1.4569  0.4297
H       -1.5399  0.6710  1.9726
H       -1.2889  -0.9389  2.0023
H       1.4540  -0.7583  -1.7637
H       1.2438  0.8389  -1.9873
H       3.5465  0.1438  -1.2887
H       2.7815  1.4622  -0.4267
H       2.7824  -1.4611  0.4167
H       3.5464  -0.1490  1.2855
H       1.2069  -0.9063  1.9162
H       1.4804  0.6944  1.8517
H       -1.5132  -0.7353  -1.8848
