27

Co      0.0000  0.0000  0.0000
Cl      0.0002  -2.2843  -0.2195
Cl      -0.0001  2.2843  0.2196
N       -1.3884  0.1843  -1.3644
N       -1.3884  -0.1844  1.3643
N       1.3884  0.1842  -1.3644
N       1.3883  -0.1839  1.3644
C       -2.7234  0.4020  -0.7291
C       -2.7236  -0.4013  0.7290
C       2.7235  0.4019  -0.7292
C       2.7236  -0.4008  0.7293
H       -1.3824  0.8135  -2.1904
H       -2.5358  1.4732  -0.5101
H       -3.6638  0.3276  -1.2953
H       -3.6592  -0.3265  1.2999
H       -2.5364  -1.4753  0.5102
H       -1.4340  0.7538  1.7442
H       -1.3829  -0.8141  2.1900
H       1.4388  -0.7544  -1.7435
H       1.3826  0.8132  -2.1862
H       3.6637  0.3316  -1.2983
H       2.5330  1.4760  -0.5108
H       2.5339  -1.4749  0.5108
H       3.6637  -0.3300  1.2984
H       1.3784  -0.8133  2.1859
H       1.4383  0.7545  1.7439
H       -1.4388  -0.7541  -1.7439
