27

Co      -0.0741  0.0000  0.0000
Cl      0.0068  -2.3410  -0.2176
Cl      0.0064  2.3411  0.2177
N       -1.5129  0.1524  -1.3831
N       -1.5129  -0.1525  1.3830
N       1.5801  0.1627  -1.4276
N       1.5800  -0.1624  1.4277
C       -2.7634  0.4094  -0.6365
C       -2.7636  -0.4087  0.6365
C       2.8191  0.4114  -0.6359
C       2.8192  -0.4103  0.6360
H       -1.0904  0.9273  -1.9182
H       -2.8696  1.4554  -0.4015
H       -3.6159  0.0997  -1.2224
H       -3.6204  -0.0986  1.2180
H       -2.8702  -1.4547  0.4015
H       -1.3150  0.7498  1.8419
H       -1.0908  -0.9278  1.9177
H       1.3993  -0.7473  -1.8768
H       1.2117  0.9294  -1.9853
H       3.6941  0.1045  -1.1999
H       2.9214  1.4574  -0.3995
H       2.9222  -1.4563  0.3995
H       3.6940  -0.1030  1.2001
H       1.2119  -0.9295  1.9850
H       1.3988  0.7474  1.8772
H       -1.3107  -0.7502  -1.8415
