27

Co      0.0250  0.0000  0.0000
Cl      0.0002  -2.2785  -0.2084
Cl      -0.0001  2.2786  0.2085
N       -1.4535  0.1794  -1.3428
N       -1.4535  -0.1795  1.3427
N       1.4125  0.1619  -1.2426
N       1.4125  -0.1616  1.2426
C       -2.7749  0.3791  -0.6583
C       -2.7751  -0.3784  0.6583
C       2.7750  0.3836  -0.6493
C       2.7751  -0.3825  0.6494
H       -1.2954  0.9621  -1.9472
H       -2.8947  1.4375  -0.4954
H       -3.5838  0.0355  -1.2900
H       -3.5838  -0.0344  1.2901
H       -2.8954  -1.4368  0.4954
H       -1.4854  0.6558  1.9060
H       -1.2958  -0.9627  1.9467
H       1.4302  -0.6791  -1.7809
H       1.2136  0.9262  -1.8647
H       3.5383  0.0434  -1.3356
H       2.9047  1.4458  -0.4786
H       2.9056  -1.4447  0.4787
H       3.5382  -0.0418  1.3358
H       1.2138  -0.9263  1.8643
H       1.4297  0.6792  1.7813
H       -1.4857  -0.6561  -1.9057
