27

Co      0.0000  0.0488  0.0034
Cl      0.0002  -2.3179  -0.2229
Cl      -0.0001  2.2506  0.2163
N       -1.3913  0.1333  -1.3484
N       -1.3913  -0.1435  1.3517
N       1.3913  0.1332  -1.3484
N       1.3913  -0.1431  1.3518
C       -2.7011  0.3975  -0.6498
C       -2.7014  -0.3968  0.6465
C       2.7012  0.3975  -0.6500
C       2.7013  -0.3964  0.6467
H       -1.4604  0.8399  -2.1089
H       -2.6797  1.4609  -0.4672
H       -3.5371  0.1843  -1.2961
H       -3.5325  -0.1900  1.2974
H       -2.6804  -1.4602  0.4571
H       -1.7044  0.6288  1.9860
H       -1.4238  -0.9078  2.0377
H       1.6823  -0.6933  -1.8977
H       1.4606  0.8396  -2.1091
H       3.5371  0.1840  -1.2962
H       2.6798  1.4609  -0.4678
H       2.6807  -1.4598  0.4578
H       3.5370  -0.1891  1.2930
H       1.4237  -0.9070  2.0381
H       1.7087  0.6295  1.9856
H       -1.6823  -0.6931  -1.8981
