27

Co      0.0000  0.0000  0.0000
Cl      0.0002  -2.3376  -0.2251
Cl      -0.0001  2.3376  0.2252
N       -1.5527  0.1210  -1.3138
N       -1.5527  -0.1211  1.3137
N       1.5527  0.1247  -1.3137
N       1.5527  -0.1244  1.3137
C       -2.7472  0.4389  -0.6000
C       -2.7474  -0.4382  0.6000
C       2.7473  0.4389  -0.6001
C       2.7474  -0.4378  0.6002
H       -1.3069  0.8194  -1.9953
H       -2.9010  1.4927  -0.4015
H       -3.5754  0.0798  -1.2004
H       -3.5754  -0.0788  1.2006
H       -2.9017  -1.4891  0.4015
H       -1.7443  0.7369  1.8117
H       -1.3073  -0.8200  1.9949
H       1.7408  -0.7376  -1.8147
H       1.3071  0.8229  -1.9918
H       3.5754  0.0757  -1.2006
H       2.9049  1.4861  -0.4059
H       2.9057  -1.4850  0.4059
H       3.5753  -0.0741  1.2007
H       1.3072  -0.8229  1.9915
H       1.7403  0.7377  1.8151
H       -1.7446  -0.7373  -1.8114
