27

Co      0.0250  0.0488  0.0034
Cl      0.0002  -2.3586  -0.2171
Cl      -0.0001  2.2913  0.2105
N       -1.3801  0.1768  -1.4072
N       -1.3801  -0.1870  1.4105
N       1.3392  0.1593  -1.3070
N       1.3391  -0.1691  1.3104
C       -2.7886  0.3581  -0.6941
C       -2.7888  -0.3574  0.6908
C       2.7887  0.3626  -0.6852
C       2.7888  -0.3615  0.6819
H       -1.5404  0.9442  -2.1190
H       -2.6814  1.4224  -0.5124
H       -3.6370  0.2149  -1.3610
H       -3.6324  -0.2205  1.3623
H       -2.6821  -1.4245  0.5023
H       -1.5544  0.5758  2.0825
H       -1.5038  -1.0121  2.0479
H       1.4768  -0.6631  -1.8699
H       1.4586  0.9083  -2.0365
H       3.5914  0.2228  -1.4067
H       2.6915  1.4336  -0.4956
H       2.6923  -1.4325  0.4856
H       3.5914  -0.2279  1.4035
H       1.4217  -0.9757  1.9655
H       1.5032  0.5992  1.9578
H       -1.5322  -0.6401  -1.9947
