27

Co      0.0000  0.0000  0.0000
Cl      0.0002  -2.2857  -0.2084
Cl      -0.0001  2.2858  0.2085
N       -1.4322  0.2136  -1.3645
N       -1.4322  -0.2137  1.3644
N       1.4322  0.2098  -1.3644
N       1.4322  -0.2095  1.3644
C       -2.7924  0.3737  -0.7200
C       -2.7926  -0.3730  0.7200
C       2.7925  0.3737  -0.7201
C       2.7926  -0.3726  0.7202
H       -1.5146  0.9247  -2.1100
H       -2.7699  1.4302  -0.5026
H       -3.5153  0.2309  -1.5492
H       -3.5152  -0.2298  1.5493
H       -2.7706  -1.4323  0.5026
H       -1.3707  0.6973  1.8056
H       -1.5151  -0.9252  2.1095
H       1.3747  -0.6980  -1.8011
H       1.5148  0.9206  -2.1096
H       3.5152  0.2387  -1.5522
H       2.7634  1.4368  -0.4994
H       2.7643  -1.4357  0.4995
H       3.5152  -0.2371  1.5523
H       1.5106  -0.9207  2.1092
H       1.3742  0.6981  1.8015
H       -1.3710  -0.6977  -1.8053
