27

Co      0.0250  0.0000  0.0000
Cl      0.0002  -2.2451  -0.2142
Cl      -0.0001  2.2451  0.2143
N       -1.4306  0.1491  -1.3716
N       -1.5091  -0.1492  1.4451
N       1.4682  0.1354  -1.3450
N       1.3896  -0.1351  1.2714
C       -2.7077  0.3972  -0.6345
C       -2.7570  -0.4113  0.6541
C       2.7568  0.4165  -0.6452
C       2.7079  -0.4007  0.6256
H       -1.2661  0.9131  -1.9949
H       -2.7399  1.4519  -0.4142
H       -3.5543  0.1562  -1.2543
H       -3.6426  -0.1453  1.2152
H       -2.7896  -1.4659  0.4486
H       -1.5870  0.7118  1.9559
H       -1.3647  -0.8940  2.0976
H       1.5281  -0.7352  -1.8346
H       1.2825  0.8612  -2.0118
H       3.5971  0.1506  -1.2607
H       2.8027  1.4712  -0.4355
H       2.7545  -1.4554  0.4012
H       3.5087  -0.1588  1.3001
H       1.1845  -0.8810  1.9083
H       1.4294  0.7205  1.7908
H       -1.4891  -0.6974  -1.9114
