27

Co      0.0741  0.0488  0.0034
Cl      -0.0063  -2.3231  -0.2193
Cl      -0.0067  2.2558  0.2126
N       -1.5068  0.1475  -1.3670
N       -1.5068  -0.1577  1.3703
N       1.4397  0.1371  -1.3224
N       1.4397  -0.1469  1.3257
C       -2.7942  0.4062  -0.6411
C       -2.7944  -0.4055  0.6377
C       2.7386  0.4041  -0.6419
C       2.7388  -0.4030  0.6386
H       -1.3772  0.8617  -2.0584
H       -2.8432  1.4609  -0.4334
H       -3.6404  0.1392  -1.2581
H       -3.6404  -0.1448  1.2548
H       -2.8439  -1.4601  0.4233
H       -1.5849  0.6754  1.9266
H       -1.3406  -0.9296  1.9872
H       1.4696  -0.7432  -1.8027
H       1.2562  0.8589  -1.9917
H       3.5622  0.1336  -1.2808
H       2.7916  1.4589  -0.4367
H       2.7924  -1.4578  0.4266
H       3.5621  -0.1387  1.2776
H       1.2193  -0.9263  1.9207
H       1.4960  0.6793  1.8906
H       -1.5582  -0.7398  -1.8387
