27

Co      -0.0490  -0.0488  -0.0034
Cl      0.0068  -2.3039  -0.2217
Cl      0.0064  2.3713  0.2286
N       -1.5020  0.1210  -1.3852
N       -1.5020  -0.1110  1.3817
N       1.5282  0.1214  -1.3295
N       1.5281  -0.1110  1.3262
C       -2.7873  0.4358  -0.5701
C       -2.7876  -0.4351  0.5734
C       2.8430  0.4423  -0.5604
C       2.8431  -0.4412  0.5639
H       -1.0962  0.8808  -1.9476
H       -2.8807  1.4723  -0.2891
H       -3.6588  0.1333  -1.1369
H       -3.6632  -0.1255  1.1359
H       -2.8813  -1.4716  0.2992
H       -1.3584  0.8467  1.7525
H       -1.1337  -0.8140  2.0178
H       1.4067  -0.8029  -1.7580
H       1.1357  0.8548  -1.9244
H       3.6914  0.1390  -1.1571
H       2.9528  1.4751  -0.2771
H       2.9536  -1.4740  0.2872
H       3.6914  -0.1307  1.1606
H       1.1728  -0.7876  1.9948
H       1.3792  0.8670  1.6709
H       -1.3810  -0.7831  -1.8397
