27

Co      0.0741  0.0488  0.0034
Cl      -0.0063  -2.3159  -0.2193
Cl      -0.0067  2.2487  0.2126
N       -1.4460  0.1427  -1.2728
N       -1.5246  -0.1530  1.3497
N       1.4575  0.1323  -1.3018
N       1.3789  -0.1421  1.2315
C       -2.7744  0.4012  -0.6265
C       -2.8237  -0.4152  0.6427
C       2.7680  0.4139  -0.6470
C       2.7190  -0.3981  0.6240
H       -1.2994  0.8524  -1.9661
H       -2.8354  1.4559  -0.4114
H       -3.5747  0.1393  -1.3040
H       -3.6631  -0.1351  1.2615
H       -2.8852  -1.4699  0.4357
H       -1.6077  0.6971  1.8769
H       -1.3610  -0.9006  1.9981
H       1.4924  -0.7649  -1.7530
H       1.2766  0.8300  -2.0026
H       3.5848  0.1239  -1.2875
H       2.8329  1.4687  -0.4491
H       2.7846  -1.4528  0.4047
H       3.4964  -0.1388  1.3236
H       1.1415  -0.9170  1.8285
H       1.4206  0.6863  1.7967
H       -1.4828  -0.7467  -1.7448
