27

Co      0.0000  0.0000  0.0000
Cl      0.0002  -2.3177  -0.2138
Cl      -0.0001  2.3178  0.2139
N       -1.4027  0.1690  -1.2981
N       -1.4027  -0.1691  1.2980
N       1.4027  0.1652  -1.2980
N       1.4027  -0.1649  1.2980
C       -2.7393  0.3813  -0.6537
C       -2.7395  -0.3806  0.6537
C       2.7393  0.3813  -0.6538
C       2.7395  -0.3802  0.6539
H       -1.2223  0.9408  -1.9093
H       -2.8588  1.4398  -0.4868
H       -3.5290  0.0431  -1.3092
H       -3.5290  -0.0420  1.3093
H       -2.8594  -1.4391  0.4868
H       -1.4256  0.6725  1.8481
H       -1.2228  -0.9414  1.9088
H       1.4295  -0.6731  -1.8436
H       1.2225  0.9368  -1.9133
H       3.5290  0.0464  -1.3093
H       2.8551  1.4435  -0.4837
H       2.8560  -1.4424  0.4837
H       3.5289  -0.0449  1.3095
H       1.2227  -0.9369  1.9129
H       1.4290  0.6732  1.8440
H       -1.4258  -0.6728  -1.8478
