27

Co      0.0741  0.0000  0.0000
Cl      -0.0063  -2.2733  -0.2121
Cl      -0.0067  2.2734  0.2122
N       -1.3846  0.1688  -1.3187
N       -1.3846  -0.1689  1.3186
N       1.3175  0.1545  -1.2741
N       1.3174  -0.1543  1.2741
C       -2.7374  0.3747  -0.6618
C       -2.7377  -0.3740  0.6617
C       2.6819  0.3726  -0.6626
C       2.6821  -0.3715  0.6627
H       -1.4588  0.9268  -2.0213
H       -2.7898  1.4418  -0.5197
H       -3.5359  0.0881  -1.3281
H       -3.5314  -0.0870  1.3328
H       -2.7905  -1.4411  0.5197
H       -1.6640  0.6173  1.9418
H       -1.4592  -0.9274  2.0209
H       1.5839  -0.6211  -1.9017
H       1.3378  0.9204  -1.9584
H       3.4577  0.0862  -1.3509
H       2.7344  1.4436  -0.5193
H       2.7353  -1.4425  0.5193
H       3.4576  -0.0847  1.3510
H       1.3379  -0.9204  1.9581
H       1.5834  0.6212  1.9021
H       -1.6688  -0.6177  -1.9415
