27

Co      -0.0250  0.0000  0.0000
Cl      0.0002  -2.2612  -0.2181
Cl      -0.0001  2.2612  0.2182
N       -1.5782  0.1129  -1.3413
N       -1.5782  -0.1130  1.3412
N       1.6192  0.1302  -1.4414
N       1.6191  -0.1299  1.4414
C       -2.7394  0.4450  -0.5822
C       -2.7396  -0.4443  0.5821
C       2.7394  0.4404  -0.5914
C       2.7396  -0.4393  0.5915
H       -1.2485  0.8392  -1.9604
H       -2.9510  1.4852  -0.3374
H       -3.4902  0.0907  -1.2806
H       -3.4947  -0.0896  1.2763
H       -2.9517  -1.4817  0.3374
H       -1.6124  0.7716  1.8044
H       -1.2489  -0.8398  1.9599
H       1.6635  -0.7495  -1.9280
H       1.3307  0.8745  -2.0434
H       3.5357  0.0820  -1.2353
H       2.9412  1.4741  -0.3554
H       2.9421  -1.4730  0.3554
H       3.5356  -0.0804  1.2354
H       1.3308  -0.8746  2.0430
H       1.6630  0.7496  1.9284
H       -1.6081  -0.7720  -1.8040
