27

Co      0.0000  0.0000  0.0000
Cl      0.0002  -2.2379  -0.2142
Cl      -0.0001  2.2379  0.2143
N       -1.3729  0.1435  -1.3043
N       -1.3729  -0.1436  1.3042
N       1.3730  0.1434  -1.3042
N       1.3729  -0.1431  1.3042
C       -2.7911  0.3955  -0.6741
C       -2.7913  -0.3948  0.6741
C       2.7912  0.3955  -0.6742
C       2.7913  -0.3944  0.6743
H       -1.3298  0.8604  -2.0288
H       -2.6197  1.4610  -0.4481
H       -3.7149  0.2972  -1.2521
H       -3.7103  -0.2961  1.2567
H       -2.6203  -1.4631  0.4481
H       -1.4687  0.7154  1.8144
H       -1.3303  -0.8610  2.0283
H       1.4735  -0.7160  -1.8137
H       1.3300  0.8601  -2.0290
H       3.7148  0.2968  -1.2522
H       2.6198  1.4638  -0.4487
H       2.6206  -1.4627  0.4488
H       3.7148  -0.2952  1.2524
H       1.3302  -0.8602  2.0287
H       1.4730  0.7161  1.8140
H       -1.4735  -0.7158  -1.8141
