27

Co      0.0000  0.0000  0.0000
Cl      0.0002  -2.2612  -0.2181
Cl      -0.0001  2.2612  0.2182
N       -1.5806  0.1243  -1.3778
N       -1.5806  -0.1244  1.3777
N       1.5806  0.1279  -1.3778
N       1.5806  -0.1276  1.3778
C       -2.7439  0.4382  -0.6048
C       -2.7441  -0.4375  0.6048
C       2.7440  0.4382  -0.6049
C       2.7441  -0.4371  0.6050
H       -1.3437  0.8371  -2.0443
H       -2.8809  1.4920  -0.4030
H       -3.6034  0.0929  -1.1674
H       -3.6034  -0.0918  1.1676
H       -2.8816  -1.4885  0.4030
H       -1.7822  0.7241  1.8884
H       -1.3442  -0.8376  2.0439
H       1.7786  -0.7247  -1.8915
H       1.3439  0.8405  -2.0408
H       3.6034  0.0888  -1.1676
H       2.8848  1.4855  -0.4073
H       2.8856  -1.4844  0.4074
H       3.6033  -0.0872  1.1677
H       1.3441  -0.8406  2.0405
H       1.7781  0.7248  1.8918
H       -1.7824  -0.7244  -1.8881
