27

Co      -0.0250  0.0061  -0.0389
Cl      0.0002  -2.2915  -0.2139
Cl      -0.0001  2.2875  0.2181
N       -1.4915  0.1119  -1.3194
N       -1.4784  -0.1080  1.2825
N       1.4540  0.1255  -1.3459
N       1.5979  -0.1212  1.4564
C       -2.7663  0.4051  -0.6138
C       -2.7665  -0.4101  0.6310
C       2.7173  0.3858  -0.6034
C       2.8156  -0.4199  0.6599
H       -1.0349  0.9616  -1.7695
H       -2.8144  1.4490  -0.3526
H       -3.6102  0.1668  -1.2361
H       -3.5999  -0.1387  1.2506
H       -2.8436  -1.4581  0.3878
H       -1.2904  0.7346  1.8424
H       -0.9740  -0.9449  1.7273
H       1.2798  -0.6859  -1.9623
H       1.0189  1.0128  -1.7575
H       3.5673  0.1672  -1.2300
H       2.7517  1.4298  -0.3325
H       2.8793  -1.4680  0.4364
H       3.7292  -0.1190  1.1704
H       1.1585  -0.9564  1.9216
H       1.4429  0.7273  2.0069
H       -1.3189  -0.7211  -1.8863
