27

Co      0.0000  -0.0427  -0.0422
Cl      0.0002  -2.2739  -0.2144
Cl      -0.0001  2.3372  0.2253
N       -1.6111  0.1365  -1.3860
N       -1.5979  -0.1224  1.3457
N       1.5325  0.1401  -1.3123
N       1.6765  -0.1257  1.4194
C       -2.7780  0.4337  -0.5945
C       -2.7783  -0.4387  0.6150
C       2.7290  0.4189  -0.5750
C       2.8273  -0.4530  0.6349
H       -1.3798  0.8862  -2.0162
H       -2.9127  1.4854  -0.3855
H       -3.6364  0.0961  -1.1666
H       -3.6216  -0.0613  1.1889
H       -2.9420  -1.4917  0.4307
H       -1.7711  0.7562  1.8140
H       -1.3559  -0.8022  2.0447
H       1.7291  -0.6663  -1.9046
H       1.2818  0.9092  -1.9096
H       3.5480  0.1018  -1.2060
H       2.8675  1.4641  -0.3555
H       2.9951  -1.5023  0.4695
H       3.7099  -0.0469  1.1498
H       1.4540  -0.7855  2.1444
H       1.8653  0.7716  1.8616
H       -1.8310  -0.6787  -1.9454
