27

Co      0.0250  -0.0061  0.0389
Cl      0.0002  -2.3266  -0.2233
Cl      -0.0001  2.3307  0.2193
N       -1.4165  0.1893  -1.3841
N       -1.4296  -0.1936  1.4209
N       1.4541  0.1756  -1.3576
N       1.3100  -0.1794  1.2471
C       -2.7575  0.3960  -0.7325
C       -2.7578  -0.3896  0.7153
C       2.8067  0.4153  -0.7432
C       2.7087  -0.3790  0.6868
H       -1.5621  0.8374  -2.2234
H       -2.6039  1.4644  -0.5203
H       -3.6078  0.3224  -1.4231
H       -3.6180  -0.3483  1.4089
H       -2.5760  -1.4567  0.4851
H       -1.5715  0.7044  1.8629
H       -1.6239  -0.8551  2.2647
H       1.5825  -0.7543  -1.7415
H       1.5785  0.7856  -2.2358
H       3.6506  0.3212  -1.4324
H       2.6639  1.4865  -0.5416
H       2.5379  -1.4461  0.4378
H       3.4885  -0.3662  1.4922
H       1.4393  -0.8421  2.0710
H       1.4184  0.7131  1.6977
H       -1.5436  -0.7186  -1.8184
