27

Co      0.0741  0.0488  0.0034
Cl      -0.0063  -2.2716  -0.2176
Cl      -0.0067  2.2043  0.2109
N       -1.4614  0.1376  -1.3215
N       -1.4614  -0.1478  1.3248
N       1.3943  0.1272  -1.2769
N       1.3942  -0.1370  1.2803
C       -2.7648  0.4103  -0.6363
C       -2.7650  -0.4096  0.6329
C       2.7093  0.4082  -0.6371
C       2.7094  -0.4071  0.6339
H       -1.3246  0.8357  -2.0314
H       -2.8139  1.4650  -0.4235
H       -3.5933  0.1481  -1.2741
H       -3.5933  -0.1537  1.2709
H       -2.8145  -1.4642  0.4134
H       -1.5398  0.6966  1.8633
H       -1.2880  -0.9036  1.9602
H       1.4245  -0.7643  -1.7394
H       1.2036  0.8330  -1.9647
H       3.5150  0.1424  -1.2969
H       2.7622  1.4630  -0.4268
H       2.7631  -1.4619  0.4167
H       3.5150  -0.1476  1.2937
H       1.1667  -0.9004  1.8937
H       1.4509  0.7005  1.8274
H       -1.5131  -0.7609  -1.7755
