27

Co      0.0250  -0.0061  0.0389
Cl      0.0002  -2.2321  -0.2088
Cl      -0.0001  2.2362  0.2048
N       -1.4186  0.2032  -1.3452
N       -1.4317  -0.2074  1.3819
N       1.4562  0.1857  -1.3186
N       1.3122  -0.1895  1.2082
C       -2.7363  0.3925  -0.6713
C       -2.7366  -0.3861  0.6541
C       2.7855  0.4117  -0.6819
C       2.6875  -0.3754  0.6256
H       -1.2939  0.8803  -2.0728
H       -2.9072  1.4530  -0.5211
H       -3.5331  -0.0042  -1.2936
H       -3.5479  -0.0217  1.2749
H       -2.8792  -1.4424  0.4860
H       -1.4609  0.7087  1.8083
H       -1.3557  -0.8980  2.1140
H       1.4711  -0.7587  -1.6832
H       1.3103  0.8248  -2.0889
H       3.5759  -0.0017  -1.3000
H       2.9663  1.4760  -0.5387
H       2.8403  -1.4357  0.4349
H       3.4139  -0.0434  1.3598
H       1.1710  -0.8813  1.9241
H       1.3070  0.7175  1.6394
H       -1.4284  -0.7230  -1.7638
