27

Co      0.0000  0.0000  0.0000
Cl      0.0002  -2.3376  -0.2251
Cl      -0.0001  2.3376  0.2252
N       -1.5159  0.1225  -1.3307
N       -1.5159  -0.1227  1.3306
N       1.5159  0.1262  -1.3306
N       1.5159  -0.1259  1.3306
C       -2.7968  0.4297  -0.6210
C       -2.7970  -0.4290  0.6210
C       2.7968  0.4297  -0.6212
C       2.7970  -0.4286  0.6212
H       -1.3370  0.8298  -2.0209
H       -2.7960  1.4806  -0.3711
H       -3.6457  0.2237  -1.2592
H       -3.6456  -0.2226  1.2593
H       -2.7966  -1.4799  0.3711
H       -1.5909  0.7584  1.8028
H       -1.3374  -0.8303  2.0204
H       1.5874  -0.7590  -1.8059
H       1.3372  0.8332  -2.0174
H       3.6456  0.2196  -1.2593
H       2.7998  1.4769  -0.3755
H       2.8007  -1.4758  0.3755
H       3.6456  -0.2180  1.2595
H       1.3373  -0.8333  2.0170
H       1.5868  0.7591  1.8063
H       -1.5911  -0.7587  -1.8025
