27

Co      0.0000  -0.0488  -0.0034
Cl      0.0002  -2.2238  -0.2072
Cl      -0.0001  2.2912  0.2140
N       -1.5295  0.1298  -1.3913
N       -1.5295  -0.1198  1.3878
N       1.5295  0.1297  -1.3912
N       1.5295  -0.1193  1.3879
C       -2.8016  0.3939  -0.6384
C       -2.8019  -0.3932  0.6418
C       2.8017  0.3939  -0.6386
C       2.8019  -0.3928  0.6420
H       -1.2872  1.0187  -1.8568
H       -2.7991  1.4486  -0.4179
H       -3.6726  0.1826  -1.2388
H       -3.6726  -0.1748  1.2423
H       -2.7997  -1.4479  0.4280
H       -1.5924  0.6682  2.0166
H       -1.3247  -0.9519  1.9270
H       1.6196  -0.6048  -2.1035
H       1.2874  1.0184  -1.8614
H       3.6726  0.1778  -1.2390
H       2.7992  1.4486  -0.4185
H       2.8000  -1.4475  0.4287
H       3.6725  -0.1695  1.2425
H       1.3290  -0.9511  1.9318
H       1.5921  0.6689  2.0163
H       -1.6196  -0.6046  -2.1038
