27

Co      0.0000  0.0488  0.0034
Cl      0.0002  -2.3623  -0.2246
Cl      -0.0001  2.2950  0.2180
N       -1.4249  0.1433  -1.3365
N       -1.4249  -0.1535  1.3398
N       1.4249  0.1432  -1.3364
N       1.4249  -0.1530  1.3398
C       -2.7353  0.4006  -0.6595
C       -2.7355  -0.3999  0.6562
C       2.7353  0.4006  -0.6597
C       2.7355  -0.3995  0.6564
H       -1.3388  0.8370  -2.0710
H       -2.7113  1.4689  -0.4917
H       -3.6597  0.1464  -1.1754
H       -3.6551  -0.1521  1.1767
H       -2.7119  -1.4682  0.4816
H       -1.6505  0.6462  1.9338
H       -1.3022  -0.9049  1.9998
H       1.6283  -0.7108  -1.8455
H       1.3390  0.8367  -2.0712
H       3.6597  0.1461  -1.1755
H       2.7114  1.4689  -0.4923
H       2.7122  -1.4678  0.4823
H       3.6596  -0.1512  1.1723
H       1.3021  -0.9041  2.0002
H       1.6547  0.6469  1.9334
H       -1.6283  -0.7105  -1.8459
