27

Co      0.0250  -0.0061  0.0389
Cl      0.0002  -2.2822  -0.2216
Cl      -0.0001  2.2864  0.2176
N       -1.4286  0.1745  -1.4042
N       -1.4417  -0.1787  1.4409
N       1.4662  0.1607  -1.3776
N       1.3221  -0.1645  1.2672
C       -2.6922  0.4163  -0.6573
C       -2.6924  -0.4099  0.6401
C       2.7413  0.4356  -0.6680
C       2.6433  -0.3993  0.6116
H       -1.3055  0.8229  -2.1637
H       -2.7802  1.4731  -0.4604
H       -3.5413  0.1033  -1.2450
H       -3.5561  -0.1292  1.2263
H       -2.7523  -1.4625  0.4253
H       -1.5019  0.7559  1.8311
H       -1.3673  -0.8406  2.2050
H       1.5084  -0.8059  -1.7098
H       1.3219  0.7711  -2.1761
H       3.5841  0.1021  -1.2513
H       2.8431  1.4924  -0.4818
H       2.7171  -1.4520  0.3779
H       3.4221  -0.1472  1.3112
H       1.1827  -0.8276  2.0114
H       1.3443  0.7647  1.6660
H       -1.4694  -0.7702  -1.7866
