27

Co      0.0000  0.0488  0.0034
Cl      0.0002  -2.2750  -0.2101
Cl      -0.0001  2.2077  0.2034
N       -1.3632  0.1644  -1.3405
N       -1.4417  -0.1746  1.4174
N       1.4418  0.1606  -1.4141
N       1.3632  -0.1704  1.3438
C       -2.7480  0.3986  -0.6757
C       -2.7974  -0.4127  0.6920
C       2.7972  0.4133  -0.6955
C       2.7483  -0.3975  0.6725
H       -1.1723  0.9234  -1.9590
H       -2.8085  1.4543  -0.4846
H       -3.5269  0.1281  -1.3735
H       -3.6152  -0.1239  1.3310
H       -2.8583  -1.4711  0.5088
H       -1.4978  0.6434  1.9991
H       -1.2339  -0.9716  1.9909
H       1.4748  -0.7080  -1.9071
H       1.2707  0.8997  -2.0660
H       3.6152  0.1217  -1.3344
H       2.8540  1.4756  -0.5158
H       2.8057  -1.4597  0.4714
H       3.5268  -0.1366  1.3705
H       1.1356  -0.9867  1.8919
H       1.4031  0.6294  1.9509
H       -1.3729  -0.6930  -1.8671
