27

Co      0.0250  0.0488  0.0034
Cl      0.0002  -2.3107  -0.2229
Cl      -0.0001  2.2435  0.2163
N       -1.3631  0.1417  -1.3580
N       -1.3631  -0.1519  1.3613
N       1.3222  0.1280  -1.2578
N       1.3221  -0.1378  1.2612
C       -2.7555  0.3932  -0.6803
C       -2.7557  -0.3925  0.6769
C       2.7555  0.3978  -0.6713
C       2.7557  -0.3967  0.6681
H       -1.3572  0.8373  -2.1127
H       -2.5701  1.4587  -0.4582
H       -3.7056  0.2969  -1.2274
H       -3.7010  -0.3025  1.2287
H       -2.5707  -1.4608  0.4481
H       -1.4815  0.6774  1.9232
H       -1.3207  -0.9052  2.0416
H       1.4001  -0.7647  -1.7143
H       1.2755  0.8052  -2.0265
H       3.6600  0.3011  -1.2731
H       2.5839  1.4661  -0.4452
H       2.5847  -1.4650  0.4351
H       3.6600  -0.3062  1.2699
H       1.2386  -0.8726  1.9554
H       1.4266  0.7009  1.8022
H       -1.4593  -0.7417  -1.8353
