27

Co      0.0250  -0.0061  0.0389
Cl      0.0002  -2.2430  -0.2162
Cl      -0.0001  2.2472  0.2123
N       -1.3987  0.1482  -1.3933
N       -1.4118  -0.1524  1.4301
N       1.4363  0.1345  -1.3668
N       1.2923  -0.1383  1.2563
C       -2.7863  0.3889  -0.6823
C       -2.7866  -0.3824  0.6651
C       2.8355  0.4081  -0.6930
C       2.7375  -0.3718  0.6366
H       -1.5143  0.8966  -2.1161
H       -2.6250  1.4515  -0.4579
H       -3.6548  0.3105  -1.3434
H       -3.6650  -0.3364  1.3292
H       -2.5970  -1.4438  0.4227
H       -1.6138  0.6585  2.0133
H       -1.5761  -0.9143  2.1574
H       1.6248  -0.7084  -1.8920
H       1.5307  0.8448  -2.1329
H       3.6976  0.3048  -1.3497
H       2.6878  1.4736  -0.4792
H       2.5619  -1.4333  0.3754
H       3.5356  -0.3499  1.4096
H       1.3959  -0.9013  1.9681
H       1.4606  0.6672  1.8482
H       -1.5858  -0.6727  -1.9688
