27

Co      0.0250  0.0427  0.0422
Cl      0.0002  -2.2767  -0.2196
Cl      -0.0001  2.2135  0.2089
N       -1.4981  0.1730  -1.4340
N       -1.4327  -0.1873  1.4005
N       1.4572  0.1592  -1.3338
N       1.3917  -0.1731  1.3003
C       -2.7523  0.4237  -0.6688
C       -2.7035  -0.4025  0.6286
C       2.7524  0.4282  -0.6598
C       2.7035  -0.4066  0.6198
H       -1.4052  0.7848  -2.2453
H       -2.8475  1.4804  -0.4845
H       -3.6176  0.0897  -1.2306
H       -3.5439  -0.1322  1.2478
H       -2.7705  -1.4552  0.4048
H       -1.4966  0.7112  1.8492
H       -1.3318  -0.8895  2.1128
H       1.4761  -0.8252  -1.6404
H       1.3234  0.7526  -2.1546
H       3.5720  0.0983  -1.2762
H       2.8613  1.4850  -0.4714
H       2.7844  -1.4594  0.3918
H       3.4984  -0.1403  1.2935
H       1.2453  -0.8568  2.0222
H       1.4371  0.7347  1.7283
H       -1.5353  -0.8042  -1.7614
