27

Co      0.0250  0.0427  0.0422
Cl      0.0002  -2.3531  -0.2267
Cl      -0.0001  2.2899  0.2159
N       -1.4354  0.1388  -1.3243
N       -1.4485  -0.1531  1.3644
N       1.4730  0.1250  -1.2977
N       1.3289  -0.1389  1.1907
C       -2.7355  0.4081  -0.6498
C       -2.7358  -0.4017  0.6292
C       2.7847  0.4274  -0.6605
C       2.6867  -0.3911  0.6007
H       -1.2661  0.8433  -2.0120
H       -2.7988  1.4649  -0.4526
H       -3.5631  0.1214  -1.2788
H       -3.5778  -0.1540  1.2567
H       -2.7709  -1.4544  0.4073
H       -1.5300  0.6784  1.9229
H       -1.2909  -0.9284  1.9826
H       1.5095  -0.7923  -1.7141
H       1.2825  0.7915  -2.0288
H       3.6059  0.1157  -1.2852
H       2.8617  1.4842  -0.4739
H       2.7357  -1.4438  0.3599
H       3.4439  -0.1675  1.3417
H       1.1107  -0.9154  1.7933
H       1.3723  0.6871  1.7578
H       -1.4705  -0.7566  -1.7909
