27

Co      0.0000  0.0000  0.0000
Cl      0.0002  -2.2785  -0.2084
Cl      -0.0001  2.2786  0.2085
N       -1.3867  0.1743  -1.2961
N       -1.3867  -0.1744  1.2960
N       1.3868  0.1705  -1.2960
N       1.3867  -0.1702  1.2960
C       -2.8160  0.4022  -0.6971
C       -2.8163  -0.4015  0.6971
C       2.8161  0.4021  -0.6973
C       2.8163  -0.4010  0.6974
H       -1.2523  0.9168  -1.9615
H       -2.8326  1.4714  -0.5558
H       -3.6656  0.1127  -1.2983
H       -3.6610  -0.1116  1.3030
H       -2.8332  -1.4734  0.5558
H       -1.5678  0.6394  1.8756
H       -1.2528  -0.9174  1.9611
H       1.5764  -0.6400  -1.8711
H       1.2525  0.9128  -1.9655
H       3.6655  0.1160  -1.2985
H       2.8290  1.4779  -0.5527
H       2.8298  -1.4768  0.5527
H       3.6655  -0.1145  1.2986
H       1.2527  -0.9128  1.9652
H       1.5758  0.6401  1.8715
H       -1.5726  -0.6398  -1.8753
