27

Co      -0.0250  -0.0488  -0.0034
Cl      0.0002  -2.3002  -0.2142
Cl      -0.0001  2.3676  0.2211
N       -1.4481  0.1421  -1.2975
N       -1.4481  -0.1322  1.2940
N       1.4891  0.1557  -1.3976
N       1.4890  -0.1453  1.3942
C       -2.8234  0.4057  -0.5878
C       -2.8236  -0.4050  0.5911
C       2.8235  0.4012  -0.5970
C       2.8236  -0.4000  0.6004
H       -1.2596  0.9130  -1.9145
H       -2.9389  1.4547  -0.3771
H       -3.6270  0.0719  -1.2304
H       -3.6270  -0.0640  1.2339
H       -2.9396  -1.4540  0.3873
H       -1.5114  0.7512  1.7672
H       -1.2971  -0.8462  1.9847
H       1.5978  -0.6651  -1.9747
H       1.3418  0.9445  -2.0012
H       3.6725  0.0669  -1.1821
H       2.9282  1.4502  -0.3914
H       2.9291  -1.4491  0.4016
H       3.6725  -0.0586  1.1856
H       1.3790  -0.8773  2.0716
H       1.5703  0.7292  1.8876
H       -1.5386  -0.6876  -1.8545
