27

Co      0.0000  0.0000  0.0000
Cl      0.0002  -2.2612  -0.2181
Cl      -0.0001  2.2612  0.2182
N       -1.5716  0.1261  -1.4083
N       -1.5716  -0.1262  1.4082
N       1.5716  0.1298  -1.4082
N       1.5716  -0.1295  1.4082
C       -2.7889  0.4384  -0.6174
C       -2.7892  -0.4377  0.6174
C       2.7890  0.4383  -0.6176
C       2.7892  -0.4372  0.6176
H       -1.1741  0.8558  -2.0049
H       -2.8247  1.4806  -0.3331
H       -3.6802  0.2080  -1.1857
H       -3.6847  -0.2069  1.1813
H       -2.8253  -1.4799  0.3332
H       -1.4158  0.8059  1.8133
H       -1.1745  -0.8564  2.0045
H       1.4077  -0.8065  -1.8164
H       1.1743  0.8593  -2.0014
H       3.6802  0.2039  -1.1858
H       2.8285  1.4769  -0.3375
H       2.8293  -1.4758  0.3376
H       3.6801  -0.2023  1.1860
H       1.1744  -0.8593  2.0011
H       1.4072  0.8066  1.8168
H       -1.4115  -0.8063  -1.8130
