27

Co      0.0000  0.0061  -0.0389
Cl      0.0002  -2.3359  -0.2156
Cl      -0.0001  2.3318  0.2198
N       -1.4358  0.1460  -1.3275
N       -1.5013  -0.1420  1.3642
N       1.4359  0.1459  -1.3274
N       1.5012  -0.1415  1.3642
C       -2.7989  0.3932  -0.5756
C       -2.8482  -0.4130  0.6124
C       2.7989  0.3932  -0.5757
C       2.8482  -0.4125  0.6126
H       -1.3007  0.9136  -1.9624
H       -2.8932  1.4402  -0.3543
H       -3.6130  0.0846  -1.2195
H       -3.6866  -0.0467  1.1992
H       -2.9716  -1.4640  0.4238
H       -1.5872  0.7222  1.8725
H       -1.3380  -0.8774  2.0233
H       1.5220  -0.6962  -1.8717
H       1.3009  0.9133  -1.9626
H       3.6130  0.0842  -1.2168
H       2.8962  1.4402  -0.3549
H       2.9747  -1.4636  0.4244
H       3.6865  -0.0459  1.1965
H       1.3379  -0.8766  2.0237
H       1.5869  0.7229  1.8721
H       -1.5220  -0.6939  -1.8721
