27

Co      0.0000  -0.0488  -0.0034
Cl      0.0002  -2.2682  -0.2089
Cl      -0.0001  2.3355  0.2157
N       -1.6039  0.1599  -1.3849
N       -1.6039  -0.1499  1.3814
N       1.6039  0.1598  -1.3848
N       1.6038  -0.1494  1.3815
C       -2.7773  0.4148  -0.6038
C       -2.7775  -0.4141  0.6071
C       2.7773  0.4148  -0.6039
C       2.7775  -0.4137  0.6073
H       -1.2799  0.9669  -1.9097
H       -3.0578  1.4588  -0.4080
H       -3.5198  -0.0193  -1.2852
H       -3.5243  0.0271  1.2842
H       -3.0584  -1.4552  0.4181
H       -1.6023  0.7292  1.8660
H       -1.3173  -0.9001  1.9799
H       1.6250  -0.6659  -1.9528
H       1.2801  0.9666  -1.9099
H       3.5198  -0.0197  -1.2853
H       3.0579  1.4560  -0.4086
H       3.0587  -1.4549  0.4187
H       3.5197  0.0280  1.2888
H       1.3173  -0.8993  1.9803
H       1.5975  0.7299  1.8656
H       -1.6250  -0.6656  -1.9532
