27

Co      -0.0250  -0.0427  -0.0422
Cl      0.0002  -2.2630  -0.2069
Cl      -0.0001  2.3263  0.2178
N       -1.4849  0.1478  -1.3106
N       -1.4718  -0.1337  1.2703
N       1.4474  0.1613  -1.3370
N       1.5913  -0.1469  1.4441
C       -2.8590  0.4029  -0.5792
C       -2.8592  -0.4079  0.5997
C       2.8100  0.3836  -0.5688
C       2.9083  -0.4176  0.6287
H       -1.3224  0.9269  -1.9300
H       -2.9674  1.4498  -0.3613
H       -3.6665  0.0800  -1.2245
H       -3.6517  -0.0452  1.2469
H       -2.9966  -1.4589  0.4066
H       -1.5253  0.7528  1.7416
H       -1.2985  -0.8429  1.9585
H       1.5462  -0.6402  -1.9490
H       1.3063  0.9781  -1.9137
H       3.6236  0.0849  -1.2155
H       2.9076  1.4306  -0.3413
H       3.0352  -1.4687  0.4553
H       3.7855  -0.0300  1.1593
H       1.4785  -0.8544  2.1485
H       1.6824  0.7455  1.9061
H       -1.5853  -0.6753  -1.8730
