27

Co      0.0000  -0.0488  -0.0034
Cl      0.0002  -2.3111  -0.2217
Cl      -0.0001  2.3785  0.2286
N       -1.5555  0.1278  -1.4034
N       -1.5555  -0.1179  1.3999
N       1.5555  0.1315  -1.4033
N       1.5555  -0.1211  1.3999
C       -2.7875  0.4318  -0.6060
C       -2.7877  -0.4311  0.6094
C       2.7875  0.4318  -0.6062
C       2.7877  -0.4307  0.6096
H       -1.2929  0.9007  -1.9855
H       -2.8425  1.4692  -0.3120
H       -3.5768  0.2273  -1.3216
H       -3.5813  -0.2195  1.3206
H       -2.8432  -1.4685  0.3222
H       -1.4635  0.8122  1.8082
H       -1.3304  -0.8339  2.0557
H       1.4824  -0.7488  -1.8988
H       1.2931  0.9041  -1.9820
H       3.5767  0.2232  -1.3218
H       2.8464  1.4655  -0.3164
H       2.8472  -1.4644  0.3266
H       3.5767  -0.2149  1.3253
H       1.3303  -0.8368  2.0524
H       1.4550  0.8129  1.8117
H       -1.4862  -0.7486  -1.8955
