27

Co      0.0250  0.0427  0.0422
Cl      0.0002  -2.2695  -0.2196
Cl      -0.0001  2.2063  0.2089
N       -1.4140  0.1369  -1.3173
N       -1.4271  -0.1512  1.3574
N       1.4516  0.1232  -1.2908
N       1.3075  -0.1371  1.1837
C       -2.7415  0.4005  -0.6582
C       -2.7418  -0.3941  0.6376
C       2.7907  0.4197  -0.6688
C       2.6927  -0.3834  0.6091
H       -1.4740  0.8335  -2.0852
H       -2.7467  1.4659  -0.4886
H       -3.5630  0.1584  -1.3126
H       -3.5732  -0.1911  1.2951
H       -2.7188  -1.4554  0.4434
H       -1.7544  0.6194  1.9942
H       -1.4988  -0.9185  2.0558
H       1.7385  -0.7334  -1.7853
H       1.4904  0.7817  -2.1021
H       3.6058  0.1528  -1.3190
H       2.8096  1.4852  -0.5099
H       2.6836  -1.4449  0.3960
H       3.4438  -0.2046  1.3755
H       1.3186  -0.9055  1.8666
H       1.6013  0.6282  1.8290
H       -1.6995  -0.6977  -1.8621
