27

Co      -0.0741  -0.0427  -0.0422
Cl      0.0068  -2.3131  -0.2197
Cl      0.0064  2.3764  0.2306
N       -1.5472  0.1277  -1.3690
N       -1.5341  -0.1136  1.3287
N       1.5358  0.1418  -1.3399
N       1.6797  -0.1273  1.4470
C       -2.7146  0.4327  -0.5949
C       -2.7148  -0.4377  0.6154
C       2.7212  0.4199  -0.5747
C       2.8195  -0.4540  0.6345
H       -1.2872  0.8796  -1.9881
H       -2.8441  1.4844  -0.3850
H       -3.5652  0.0989  -1.1743
H       -3.5504  -0.0640  1.1967
H       -2.8733  -1.4907  0.4303
H       -1.6965  0.7631  1.7986
H       -1.2633  -0.7956  2.0166
H       1.7431  -0.6700  -1.9248
H       1.3104  0.9051  -1.9484
H       3.5550  0.1098  -1.1911
H       2.8506  1.4651  -0.3523
H       2.9782  -1.5033  0.4664
H       3.7170  -0.0549  1.1349
H       1.4825  -0.7814  2.1832
H       1.8793  0.7754  1.8819
H       -1.7564  -0.6856  -1.9300
