27

Co      0.0000  0.0000  0.0000
Cl      0.0002  -2.3376  -0.2251
Cl      -0.0001  2.3376  0.2252
N       -1.5437  0.1229  -1.3443
N       -1.5437  -0.1230  1.3442
N       1.5437  0.1265  -1.3442
N       1.5436  -0.1262  1.3442
C       -2.7922  0.4391  -0.6126
C       -2.7925  -0.4384  0.6126
C       2.7923  0.4390  -0.6128
C       2.7925  -0.4379  0.6128
H       -1.1372  0.8382  -1.9559
H       -2.8447  1.4813  -0.3317
H       -3.6522  0.1949  -1.2187
H       -3.6567  -0.1938  1.2143
H       -2.8454  -1.4806  0.3317
H       -1.3779  0.8188  1.7366
H       -1.1377  -0.8387  1.9555
H       1.3699  -0.8194  -1.7396
H       1.1374  0.8416  -1.9524
H       3.6522  0.1908  -1.2188
H       2.8486  1.4776  -0.3361
H       2.8494  -1.4765  0.3361
H       3.6521  -0.1892  1.2190
H       1.1376  -0.8417  1.9521
H       1.3694  0.8195  1.7400
H       -1.3737  -0.8191  -1.7363
