27

Co      0.0250  0.0427  0.0422
Cl      0.0002  -2.3159  -0.2250
Cl      -0.0001  2.2527  0.2142
N       -1.4519  0.1422  -1.3822
N       -1.4650  -0.1565  1.4223
N       1.4895  0.1284  -1.3556
N       1.3455  -0.1423  1.2486
C       -2.6737  0.4026  -0.6907
C       -2.6740  -0.3962  0.6701
C       2.7229  0.4219  -0.7013
C       2.6249  -0.3856  0.6416
H       -1.4193  0.8711  -2.0734
H       -2.6819  1.4602  -0.4786
H       -3.4392  0.2241  -1.4418
H       -3.4539  -0.2567  1.4198
H       -2.6539  -1.4497  0.4333
H       -1.6017  0.6409  2.0297
H       -1.4440  -0.9561  2.0440
H       1.5812  -0.7548  -1.8209
H       1.4357  0.8193  -2.0902
H       3.4820  0.2185  -1.4510
H       2.7419  1.4795  -0.4999
H       2.6159  -1.4392  0.3860
H       3.3199  -0.2703  1.5076
H       1.2638  -0.9431  1.8547
H       1.4440  0.6496  1.8646
H       -1.5422  -0.7191  -1.8977
