27

Co      0.0000  0.0000  0.0000
Cl      0.0002  -2.2574  -0.2106
Cl      -0.0001  2.2575  0.2107
N       -1.5941  0.1236  -1.3863
N       -1.5941  -0.1237  1.3862
N       1.5941  0.1235  -1.3862
N       1.5941  -0.1232  1.3862
C       -2.7475  0.4125  -0.6107
C       -2.7478  -0.4118  0.6107
C       2.7476  0.4125  -0.6108
C       2.7478  -0.4114  0.6109
H       -1.0759  0.9830  -1.8016
H       -2.9529  1.4613  -0.4140
H       -3.6089  0.0066  -1.1412
H       -3.6134  -0.0055  1.1369
H       -2.9535  -1.4578  0.4140
H       -1.5464  0.6752  2.0030
H       -1.0763  -0.9836  1.8012
H       1.5421  -0.6758  -2.0023
H       1.0761  0.9827  -1.8063
H       3.6089  0.0018  -1.1414
H       2.9530  1.4585  -0.4146
H       2.9538  -1.4574  0.4147
H       3.6088  -0.0002  1.1415
H       1.0807  -0.9828  1.8060
H       1.5416  0.6759  2.0027
H       -1.5421  -0.6755  -2.0027
