27

Co      -0.0741  -0.0488  -0.0034
Cl      0.0068  -2.3073  -0.2142
Cl      0.0064  2.3747  0.2211
N       -1.5129  0.1575  -1.3848
N       -1.5129  -0.1475  1.3814
N       1.5801  0.1678  -1.4293
N       1.5800  -0.1574  1.4260
C       -2.7634  0.4094  -0.6348
C       -2.7636  -0.4087  0.6382
C       2.8191  0.4114  -0.6343
C       2.8192  -0.4103  0.6377
H       -1.0718  0.9609  -1.8829
H       -2.8696  1.4554  -0.3965
H       -3.6159  0.1030  -1.2207
H       -3.6204  -0.0952  1.2197
H       -2.8702  -1.4547  0.4066
H       -1.3015  0.7818  1.7981
H       -1.1093  -0.8941  1.9531
H       1.4128  -0.7153  -1.9206
H       1.1932  0.9631  -1.9500
H       3.6941  0.1079  -1.1982
H       2.9214  1.4574  -0.3944
H       2.9222  -1.4563  0.4046
H       3.6940  -0.0996  1.2018
H       1.2304  -0.8958  2.0203
H       1.3853  0.7793  1.8334
H       -1.3242  -0.7182  -1.8853
