27

Co      0.0000  0.0000  0.0000
Cl      0.0002  -2.3448  -0.2251
Cl      -0.0001  2.3448  0.2252
N       -1.5374  0.1273  -1.3881
N       -1.5374  -0.1274  1.3880
N       1.5374  0.1310  -1.3881
N       1.5374  -0.1307  1.3881
C       -2.7920  0.4273  -0.6258
C       -2.7922  -0.4266  0.6258
C       2.7920  0.4273  -0.6259
C       2.7922  -0.4262  0.6260
H       -1.3657  0.8489  -2.0616
H       -2.7792  1.4783  -0.3759
H       -3.6672  0.2285  -1.2329
H       -3.6672  -0.2274  1.2330
H       -2.7799  -1.4775  0.3759
H       -1.6172  0.7440  1.8746
H       -1.3661  -0.8495  2.0611
H       1.6137  -0.7446  -1.8777
H       1.3659  0.8524  -2.0580
H       3.6672  0.2244  -1.2330
H       2.7831  1.4745  -0.3802
H       2.7839  -1.4734  0.3803
H       3.6671  -0.2228  1.2332
H       1.3660  -0.8524  2.0577
H       1.6132  0.7447  1.8780
H       -1.6174  -0.7444  -1.8743
