27

Co      -0.0741  0.0000  0.0000
Cl      0.0068  -2.3018  -0.2123
Cl      0.0064  2.3019  0.2124
N       -1.5146  0.1474  -1.3892
N       -1.5146  -0.1475  1.3891
N       1.5817  0.1577  -1.4337
N       1.5817  -0.1574  1.4338
C       -2.8219  0.4094  -0.5908
C       -2.8222  -0.4087  0.5907
C       2.8776  0.4114  -0.5902
C       2.8777  -0.4103  0.5903
H       -1.1196  0.9269  -1.9300
H       -2.9810  1.4497  -0.3575
H       -3.6709  0.0343  -1.1573
H       -3.6753  -0.0332  1.1530
H       -2.9816  -1.4490  0.3576
H       -1.3539  0.7502  1.8555
H       -1.1200  -0.9274  1.9296
H       1.4382  -0.7476  -1.8904
H       1.2409  0.9290  -1.9971
H       3.7490  0.0391  -1.1320
H       3.0357  1.4517  -0.3555
H       3.0365  -1.4506  0.3555
H       3.7490  -0.0376  1.1321
H       1.2411  -0.9291  1.9968
H       1.4377  0.7477  1.8908
H       -1.3496  -0.7505  -1.8551
