27

Co      -0.0250  0.0061  -0.0389
Cl      0.0002  -2.3359  -0.2156
Cl      -0.0001  2.3318  0.2198
N       -1.5085  0.1465  -1.2626
N       -1.5740  -0.1426  1.2993
N       1.5495  0.1601  -1.3627
N       1.6149  -0.1557  1.3995
C       -2.7219  0.4141  -0.5874
C       -2.7712  -0.4339  0.6242
C       2.7219  0.4095  -0.5966
C       2.7712  -0.4289  0.6335
H       -1.0328  0.9015  -1.8115
H       -2.9852  1.4609  -0.3842
H       -3.5037  -0.0257  -1.2117
H       -3.5818  0.0636  1.1868
H       -3.0635  -1.4819  0.4538
H       -1.4896  0.7669  1.7364
H       -1.0700  -0.8652  1.8724
H       1.4790  -0.7181  -1.8564
H       1.1149  0.9330  -1.8982
H       3.5492  -0.0306  -1.1663
H       2.9716  1.4535  -0.3985
H       3.0502  -1.4770  0.4681
H       3.6227  0.0690  1.1460
H       1.1519  -0.8963  1.9593
H       1.5440  0.7448  1.8567
H       -1.4199  -0.7386  -1.7361
