27

Co      0.0000  0.0000  0.0000
Cl      0.0002  -2.2984  -0.2198
Cl      -0.0001  2.2985  0.2199
N       -1.5643  0.1216  -1.3389
N       -1.5643  -0.1217  1.3388
N       1.5643  0.1252  -1.3389
N       1.5642  -0.1250  1.3389
C       -2.8279  0.4342  -0.6029
C       -2.8281  -0.4335  0.6029
C       2.8279  0.4342  -0.6031
C       2.8281  -0.4331  0.6031
H       -1.3148  0.8532  -1.9748
H       -2.9020  1.4716  -0.3141
H       -3.5873  0.2138  -1.3532
H       -3.5918  -0.2127  1.3488
H       -2.9027  -1.4709  0.3141
H       -1.4810  0.7892  1.7767
H       -1.3152  -0.8537  1.9744
H       1.4729  -0.7898  -1.7797
H       1.3150  0.8566  -1.9713
H       3.5873  0.2097  -1.3533
H       2.9059  1.4679  -0.3185
H       2.9067  -1.4668  0.3185
H       3.5872  -0.2081  1.3535
H       1.3151  -0.8567  1.9710
H       1.4724  0.7899  1.7801
H       -1.4767  -0.7895  -1.7764
