27

Co      0.0000  0.0000  0.0000
Cl      0.0002  -2.2451  -0.2142
Cl      -0.0001  2.2451  0.2143
N       -1.4081  0.1747  -1.3841
N       -1.4081  -0.1749  1.3840
N       1.4081  0.1747  -1.3840
N       1.4081  -0.1744  1.3840
C       -2.7774  0.4065  -0.6652
C       -2.7776  -0.4058  0.6652
C       2.7774  0.4065  -0.6653
C       2.7776  -0.4054  0.6654
H       -1.3574  0.8312  -2.1616
H       -2.7105  1.4584  -0.4074
H       -3.6283  0.2576  -1.3206
H       -3.6282  -0.2565  1.3208
H       -2.7111  -1.4605  0.4074
H       -1.3327  0.7903  1.7352
H       -1.3578  -0.8318  2.1611
H       1.3330  -0.7910  -1.7345
H       1.3576  0.8310  -2.1574
H       3.6282  0.2617  -1.3208
H       2.7106  1.4612  -0.4080
H       2.7114  -1.4601  0.4080
H       3.6282  -0.2601  1.3209
H       1.3533  -0.8310  2.1570
H       1.3325  0.7911  1.7349
H       -1.3330  -0.7907  -1.7349
