27

Co      0.0000  -0.0488  -0.0034
Cl      0.0002  -2.3002  -0.2142
Cl      -0.0001  2.3676  0.2211
N       -1.5384  0.1251  -1.3104
N       -1.5384  -0.1151  1.3069
N       1.5384  0.1250  -1.3103
N       1.5384  -0.1146  1.3070
C       -2.7554  0.4038  -0.6126
C       -2.7556  -0.4031  0.6160
C       2.7554  0.4038  -0.6128
C       2.7556  -0.4027  0.6162
H       -1.2203  0.9907  -1.7823
H       -2.9242  1.4614  -0.4469
H       -3.5744  0.0256  -1.2131
H       -3.5743  -0.0178  1.2166
H       -2.9248  -1.4578  0.4570
H       -1.7080  0.6596  1.9487
H       -1.2577  -0.9239  1.8525
H       1.7352  -0.5963  -2.0355
H       1.2205  0.9904  -1.7869
H       3.5743  0.0208  -1.2132
H       2.9243  1.4586  -0.4475
H       2.9251  -1.4575  0.4577
H       3.5743  -0.0125  1.2167
H       1.2621  -0.9231  1.8573
H       1.7078  0.6603  1.9484
H       -1.7352  -0.5960  -2.0359
