27

Co      0.0000  0.0000  0.0000
Cl      0.0002  -2.3004  -0.2234
Cl      -0.0001  2.3004  0.2235
N       -1.5544  0.0872  -1.4048
N       -1.5544  -0.0873  1.4047
N       1.5544  0.0909  -1.4047
N       1.5543  -0.0906  1.4047
C       -2.7448  0.4641  -0.6173
C       -2.7450  -0.4634  0.6173
C       2.7448  0.4641  -0.6174
C       2.7450  -0.4630  0.6175
H       -1.0025  0.8952  -1.8688
H       -2.8370  1.5063  -0.3570
H       -3.6097  0.1798  -1.1950
H       -3.6142  -0.1787  1.1906
H       -2.8377  -1.5056  0.3570
H       -1.5329  0.7452  1.9625
H       -1.0029  -0.8958  1.8684
H       1.5249  -0.7458  -1.9656
H       1.0027  0.8987  -1.8698
H       3.6096  0.1712  -1.1951
H       2.8409  1.5026  -0.3614
H       2.8417  -1.5015  0.3614
H       3.6096  -0.1696  1.1953
H       1.0073  -0.8988  1.8694
H       1.5244  0.7459  1.9660
H       -1.5287  -0.7455  -1.9622
