27

Co      -0.0250  0.0000  0.0000
Cl      0.0002  -2.3004  -0.2234
Cl      -0.0001  2.3004  0.2235
N       -1.5339  0.0804  -1.3547
N       -1.5339  -0.0805  1.3546
N       1.5749  0.0977  -1.4548
N       1.5748  -0.0974  1.4548
C       -2.7448  0.4664  -0.6128
C       -2.7450  -0.4657  0.6128
C       2.7448  0.4618  -0.6220
C       2.7450  -0.4607  0.6221
H       -0.9615  0.8793  -1.8256
H       -2.8439  1.5086  -0.3501
H       -3.5869  0.1820  -1.2177
H       -3.5914  -0.1809  1.2134
H       -2.8445  -1.5079  0.3502
H       -1.5033  0.7566  1.9011
H       -0.9620  -0.8799  1.8251
H       1.5545  -0.7344  -2.0248
H       1.0437  0.9146  -1.9130
H       3.6324  0.1689  -1.1724
H       2.8341  1.5003  -0.3682
H       2.8349  -1.4992  0.3682
H       3.6324  -0.1673  1.1725
H       1.0482  -0.9147  1.9127
H       1.5540  0.7345  2.0251
H       -1.4991  -0.7569  -1.9008
