27

Co      0.0741  0.0427  0.0422
Cl      -0.0063  -2.3493  -0.2192
Cl      -0.0067  2.2862  0.2084
N       -1.4116  0.1716  -1.2867
N       -1.4247  -0.1859  1.3268
N       1.4231  0.1574  -1.3157
N       1.2790  -0.1713  1.2086
C       -2.7716  0.3807  -0.6817
C       -2.7718  -0.3742  0.6612
C       2.7652  0.3934  -0.7022
C       2.6671  -0.3571  0.6425
H       -1.3250  0.8817  -1.9979
H       -2.8356  1.4547  -0.5669
H       -3.6512  0.0334  -1.2185
H       -3.6614  -0.0660  1.2010
H       -2.8077  -1.4442  0.5216
H       -1.6399  0.5958  1.9555
H       -1.3498  -0.9668  1.9685
H       1.5983  -0.6901  -1.8279
H       1.3022  0.8556  -2.0381
H       3.6613  0.0217  -1.2020
H       2.8294  1.4712  -0.6008
H       2.7034  -1.4309  0.4868
H       3.4992  -0.0734  1.2585
H       1.1303  -0.9794  1.8026
H       1.4611  0.5849  1.8716
H       -1.5850  -0.6740  -1.8235
