27

Co      -0.0741  0.0061  -0.0389
Cl      0.0068  -2.3359  -0.2156
Cl      0.0064  2.3318  0.2198
N       -1.4067  0.1098  -1.2963
N       -1.4721  -0.1058  1.3331
N       1.4738  0.1201  -1.3409
N       1.5392  -0.1157  1.3777
C       -2.7755  0.3834  -0.5715
C       -2.8248  -0.4031  0.6083
C       2.8311  0.3853  -0.5709
C       2.8804  -0.4047  0.6078
H       -1.1870  0.9788  -1.7962
H       -2.8231  1.4303  -0.3423
H       -3.5916  0.1218  -1.2264
H       -3.6652  -0.0839  1.2061
H       -2.9015  -1.4541  0.4119
H       -1.5650  0.6706  1.9819
H       -1.2243  -0.9425  1.8571
H       1.5884  -0.6415  -2.0168
H       1.3084  0.9810  -1.8677
H       3.6698  0.1223  -1.2010
H       2.8778  1.4323  -0.3403
H       2.9563  -1.4558  0.4098
H       3.7433  -0.0839  1.1807
H       1.3498  -0.9442  1.9287
H       1.6534  0.6682  2.0172
H       -1.4998  -0.6424  -1.9815
