27

Co      0.0000  -0.0488  -0.0034
Cl      0.0002  -2.2682  -0.2089
Cl      -0.0001  2.3355  0.2157
N       -1.5882  0.1659  -1.4250
N       -1.5097  -0.1559  1.3479
N       1.5097  0.1658  -1.3513
N       1.5882  -0.1554  1.4216
C       -2.8559  0.4084  -0.6527
C       -2.8070  -0.3930  0.6364
C       2.8069  0.3937  -0.6332
C       2.8561  -0.4073  0.6563
H       -1.4133  0.9493  -2.0274
H       -2.9140  1.4631  -0.4535
H       -3.7247  0.1242  -1.2339
H       -3.6363  -0.1262  1.2766
H       -2.8655  -1.4477  0.4292
H       -1.5399  0.7071  1.8577
H       -1.3526  -0.9021  1.9946
H       1.5671  -0.6437  -1.9445
H       1.3153  0.9686  -1.9246
H       3.6363  0.1336  -1.2733
H       2.8650  1.4484  -0.4197
H       2.9149  -1.4621  0.4642
H       3.7246  -0.1155  1.2375
H       1.4507  -0.8817  2.0980
H       1.6379  0.7225  1.9015
H       -1.6653  -0.6582  -1.9890
