27

Co      0.0000  -0.0488  -0.0034
Cl      0.0002  -2.3073  -0.2142
Cl      -0.0001  2.3747  0.2211
N       -1.5468  0.1652  -1.3767
N       -1.5468  -0.1552  1.3732
N       1.5469  0.1651  -1.3766
N       1.5468  -0.1547  1.3732
C       -2.7591  0.3757  -0.6175
C       -2.7593  -0.3750  0.6209
C       2.7592  0.3757  -0.6176
C       2.7593  -0.3746  0.6211
H       -1.3885  0.9650  -1.9643
H       -2.8523  1.4332  -0.4261
H       -3.6344  0.0640  -1.1739
H       -3.6343  -0.0562  1.1774
H       -2.8530  -1.4297  0.4362
H       -1.5869  0.7113  1.8749
H       -1.4260  -0.8982  2.0346
H       1.6141  -0.6480  -1.9617
H       1.3887  0.9647  -1.9646
H       3.6343  0.0637  -1.1740
H       2.8524  1.4304  -0.4267
H       2.8533  -1.4293  0.4368
H       3.6343  -0.0553  1.1775
H       1.4259  -0.8975  2.0349
H       1.5866  0.7121  1.8745
H       -1.6141  -0.6477  -1.9621
