27

Co      0.0000  0.0488  0.0034
Cl      0.0002  -2.3070  -0.2154
Cl      -0.0001  2.2397  0.2088
N       -1.2705  0.1910  -1.2837
N       -1.3491  -0.2012  1.3606
N       1.3491  0.1872  -1.3573
N       1.2705  -0.1970  1.2870
C       -2.7303  0.3659  -0.6794
C       -2.7796  -0.3800  0.6957
C       2.7794  0.3806  -0.6992
C       2.7305  -0.3648  0.6763
H       -1.4508  0.8457  -2.1300
H       -2.6786  1.4303  -0.4918
H       -3.5052  0.1911  -1.4239
H       -3.5890  -0.1869  1.3860
H       -2.7284  -1.4471  0.5160
H       -1.5067  0.6688  1.8515
H       -1.5124  -0.8940  2.1619
H       1.4882  -0.7334  -1.7596
H       1.5492  0.8220  -2.2327
H       3.5935  0.1891  -1.3848
H       2.7241  1.4516  -0.5230
H       2.6758  -1.4358  0.4786
H       3.5051  -0.2040  1.4209
H       1.4097  -0.9091  2.0585
H       1.4165  0.6548  1.8033
H       -1.3863  -0.7184  -1.7195
