27

Co      0.0000  -0.0488  -0.0034
Cl      0.0002  -2.2647  -0.2164
Cl      -0.0001  2.3321  0.2232
N       -1.5584  0.0876  -1.3432
N       -1.5584  -0.0776  1.3397
N       1.5584  0.0913  -1.3431
N       1.5584  -0.0809  1.3398
C       -2.8422  0.4648  -0.5651
C       -2.8424  -0.4641  0.5684
C       2.8423  0.4647  -0.5652
C       2.8424  -0.4636  0.5687
H       -1.0084  0.9162  -1.7910
H       -3.0113  1.5013  -0.3083
H       -3.6687  0.0993  -1.1648
H       -3.6732  -0.0914  1.1638
H       -3.0119  -1.5006  0.3184
H       -1.5508  0.7851  1.8521
H       -1.0458  -0.8494  1.8612
H       1.5697  -0.7217  -1.9426
H       1.0086  0.9197  -1.7919
H       3.6687  0.0907  -1.1621
H       3.0180  1.4976  -0.3127
H       3.0188  -1.4965  0.3228
H       3.6686  -0.0824  1.1656
H       1.0502  -0.8524  1.8623
H       1.5422  0.7858  1.8555
H       -1.5735  -0.7215  -1.9393
