27

Co      0.0000  0.0000  0.0000
Cl      0.0002  -2.2857  -0.2084
Cl      -0.0001  2.2858  0.2085
N       -1.3986  0.1742  -1.3535
N       -1.3986  -0.1743  1.3534
N       1.3986  0.1704  -1.3534
N       1.3985  -0.1701  1.3534
C       -2.8112  0.3949  -0.6922
C       -2.8115  -0.3942  0.6922
C       2.8113  0.3949  -0.6924
C       2.8115  -0.3938  0.6924
H       -1.4265  0.9457  -2.0265
H       -2.8304  1.4593  -0.5412
H       -3.5901  0.1417  -1.4030
H       -3.5856  -0.1406  1.4076
H       -2.8311  -1.4614  0.5412
H       -1.6669  0.6008  1.9910
H       -1.4269  -0.9462  2.0260
H       1.6754  -0.6014  -1.9865
H       1.4267  0.9416  -2.0304
H       3.5901  0.1451  -1.4031
H       2.8268  1.4658  -0.5381
H       2.8276  -1.4647  0.5381
H       3.5900  -0.1435  1.4033
H       1.4269  -0.9417  2.0301
H       1.6749  0.6015  1.9869
H       -1.6717  -0.6012  -1.9907
