27

Co      -0.0250  0.0061  -0.0389
Cl      0.0002  -2.2523  -0.2085
Cl      -0.0001  2.2483  0.2127
N       -1.5174  0.1465  -1.3230
N       -1.5043  -0.1425  1.2860
N       1.4798  0.1601  -1.3494
N       1.6238  -0.1557  1.4599
C       -2.7975  0.4140  -0.6182
C       -2.7977  -0.4190  0.6354
C       2.7485  0.3946  -0.6078
C       2.8468  -0.4287  0.6644
H       -1.1201  0.9005  -1.8969
H       -2.9014  1.4579  -0.3677
H       -3.6246  0.1216  -1.2441
H       -3.6143  -0.0935  1.2585
H       -2.9306  -1.4670  0.4028
H       -1.2985  0.7824  1.7105
H       -1.0592  -0.8839  1.8547
H       1.2880  -0.7337  -1.8304
H       1.1041  0.9517  -1.8806
H       3.5817  0.1265  -1.2380
H       2.8387  1.4386  -0.3476
H       2.9664  -1.4768  0.4515
H       3.7436  -0.0783  1.1784
H       1.2392  -0.8953  2.0447
H       1.4511  0.7751  1.8750
H       -1.3270  -0.7689  -1.7543
