27

Co      0.0000  -0.0488  -0.0034
Cl      0.0002  -2.2238  -0.2072
Cl      -0.0001  2.2912  0.2140
N       -1.5713  0.1591  -1.3968
N       -1.5713  -0.1491  1.3934
N       1.5713  0.1590  -1.3968
N       1.5713  -0.1486  1.3934
C       -2.7561  0.3820  -0.5994
C       -2.7563  -0.3812  0.6028
C       2.7561  0.3819  -0.5996
C       2.7563  -0.3808  0.6030
H       -1.3424  0.9816  -1.9320
H       -2.9123  1.4259  -0.3639
H       -3.5504  0.0678  -1.2576
H       -3.5549  -0.0600  1.2566
H       -2.9129  -1.4224  0.3741
H       -1.4582  0.7490  1.8572
H       -1.3799  -0.9148  2.0022
H       1.4809  -0.6857  -1.9440
H       1.3426  0.9813  -1.9322
H       3.5504  0.0674  -1.2578
H       2.9124  1.4231  -0.3646
H       2.9132  -1.4220  0.3747
H       3.5503  -0.0591  1.2613
H       1.3798  -0.9141  2.0026
H       1.4535  0.7497  1.8569
H       -1.4809  -0.6854  -1.9444
