27

Co      0.0000  -0.0427  -0.0422
Cl      0.0002  -2.2668  -0.2144
Cl      -0.0001  2.3301  0.2253
N       -1.5412  0.1335  -1.3222
N       -1.6067  -0.1194  1.3555
N       1.5413  0.1372  -1.3221
N       1.6066  -0.1227  1.3556
C       -2.8033  0.4288  -0.5926
C       -2.8526  -0.4486  0.6327
C       2.8034  0.4288  -0.5927
C       2.8526  -0.4481  0.6329
H       -1.1324  0.8956  -1.8846
H       -2.8486  1.4690  -0.2937
H       -3.6475  0.2114  -1.2308
H       -3.7256  -0.1667  1.2093
H       -2.9270  -1.4928  0.3733
H       -1.4275  0.8597  1.6893
H       -1.2066  -0.7920  2.0161
H       1.3810  -0.7698  -1.7798
H       1.1326  0.8990  -1.8811
H       3.6474  0.2072  -1.2309
H       2.8525  1.4653  -0.2980
H       2.9310  -1.4887  0.3777
H       3.7210  -0.1621  1.2140
H       1.2065  -0.7949  2.0128
H       1.4189  0.8604  1.6927
H       -1.3847  -0.7675  -1.7765
