27

Co      0.0250  0.0427  0.0422
Cl      0.0002  -2.2658  -0.2121
Cl      -0.0001  2.2026  0.2014
N       -1.3949  0.1644  -1.3516
N       -1.4080  -0.1787  1.3917
N       1.4324  0.1469  -1.3250
N       1.2884  -0.1608  1.2179
C       -2.7774  0.4090  -0.6939
C       -2.7776  -0.4025  0.6733
C       2.8265  0.4282  -0.7045
C       2.7285  -0.3919  0.6448
H       -1.2030  0.9018  -1.9922
H       -2.8573  1.4666  -0.5214
H       -3.5649  0.1027  -1.3669
H       -3.5796  -0.1353  1.3448
H       -2.8293  -1.4589  0.4761
H       -1.4683  0.6321  1.9888
H       -1.2277  -0.9868  1.9628
H       1.4516  -0.7460  -1.7762
H       1.2194  0.8462  -2.0128
H       3.6077  0.1008  -1.3733
H       2.9164  1.4925  -0.5389
H       2.7904  -1.4521  0.4250
H       3.4457  -0.1525  1.4298
H       1.0475  -0.9701  1.7773
H       1.3144  0.6409  1.8199
H       -1.4089  -0.7103  -1.8568
