27

Co      0.0000  0.0000  0.0000
Cl      0.0002  -2.3286  -0.2213
Cl      -0.0001  2.3287  0.2214
N       -1.3837  0.1808  -1.3639
N       -1.3837  -0.1810  1.3638
N       1.3837  0.1808  -1.3639
N       1.3836  -0.1805  1.3639
C       -2.7804  0.4003  -0.6833
C       -2.7806  -0.3996  0.6833
C       2.7805  0.4002  -0.6834
C       2.7806  -0.3991  0.6835
H       -1.4035  0.8146  -2.1939
H       -2.6505  1.4657  -0.4695
H       -3.7122  0.2538  -1.2369
H       -3.7077  -0.2527  1.2415
H       -2.6512  -1.4678  0.4695
H       -1.4614  0.7527  1.7528
H       -1.4039  -0.8152  2.1935
H       1.4662  -0.7533  -1.7521
H       1.4037  0.8143  -2.1897
H       3.7122  0.2579  -1.2370
H       2.6506  1.4686  -0.4701
H       2.6515  -1.4675  0.4702
H       3.7121  -0.2563  1.2372
H       1.3994  -0.8144  2.1894
H       1.4657  0.7534  1.7525
H       -1.4662  -0.7530  -1.7525
