27

Co      0.0000  -0.0488  -0.0034
Cl      0.0002  -2.3073  -0.2142
Cl      -0.0001  2.3747  0.2211
N       -1.5780  0.1253  -1.3814
N       -1.5780  -0.1154  1.3779
N       1.5780  0.1253  -1.3813
N       1.5780  -0.1149  1.3779
C       -2.7461  0.4060  -0.5993
C       -2.7463  -0.4053  0.6027
C       2.7461  0.4059  -0.5995
C       2.7463  -0.4048  0.6029
H       -1.1947  1.0279  -1.7822
H       -2.9707  1.4499  -0.3929
H       -3.5055  0.0259  -1.2772
H       -3.5100  -0.0181  1.2762
H       -2.9714  -1.4464  0.4030
H       -1.5942  0.6814  1.9979
H       -1.2322  -0.9611  1.8525
H       1.6168  -0.6181  -2.0847
H       1.1949  1.0276  -1.7869
H       3.5054  0.0211  -1.2773
H       2.9709  1.4471  -0.3935
H       2.9717  -1.4460  0.4037
H       3.5054  -0.0128  1.2808
H       1.2365  -0.9603  1.8572
H       1.5894  0.6822  1.9976
H       -1.6168  -0.6178  -2.0851
