27

Co      0.0000  0.0488  0.0034
Cl      0.0002  -2.3231  -0.2193
Cl      -0.0001  2.2558  0.2126
N       -1.4270  0.1440  -1.3480
N       -1.4270  -0.1543  1.3513
N       1.4270  0.1440  -1.3480
N       1.4270  -0.1538  1.3514
C       -2.8075  0.4260  -0.6849
C       -2.8077  -0.4253  0.6815
C       2.8076  0.4260  -0.6850
C       2.8077  -0.4249  0.6817
H       -1.3145  0.8311  -2.0825
H       -2.7484  1.4914  -0.5019
H       -3.7058  0.2115  -1.2550
H       -3.7013  -0.2171  1.2563
H       -2.7491  -1.4935  0.4919
H       -1.6526  0.6493  1.9387
H       -1.2779  -0.8990  2.0113
H       1.6304  -0.7139  -1.8504
H       1.3147  0.8308  -2.0828
H       3.7058  0.2111  -1.2551
H       2.7485  1.4943  -0.5026
H       2.7493  -1.4932  0.4925
H       3.7057  -0.2163  1.2519
H       1.2778  -0.8982  2.0117
H       1.6568  0.6500  1.9383
H       -1.6304  -0.7136  -1.8508
