27

Co      0.0000  -0.0061  0.0389
Cl      0.0002  -2.2874  -0.2180
Cl      -0.0001  2.2916  0.2140
N       -1.4597  0.1470  -1.3681
N       -1.3943  -0.1513  1.3312
N       1.4597  0.1470  -1.3681
N       1.3943  -0.1508  1.3313
C       -2.8320  0.4362  -0.7016
C       -2.7832  -0.4151  0.6648
C       2.8321  0.4362  -0.7017
C       2.7832  -0.4146  0.6650
H       -1.3144  0.8464  -2.0778
H       -2.7873  1.5037  -0.5317
H       -3.7426  0.1965  -1.2431
H       -3.6645  -0.2322  1.2682
H       -2.7102  -1.4813  0.4621
H       -1.6064  0.6669  1.8949
H       -1.2780  -0.8837  2.0160
H       1.6766  -0.6942  -1.8942
H       1.3146  0.8461  -2.0781
H       3.7426  0.1961  -1.2432
H       2.7874  1.5065  -0.5323
H       2.7105  -1.4809  0.4628
H       3.6689  -0.2313  1.2638
H       1.2780  -0.8829  2.0164
H       1.6107  0.6677  1.8946
H       -1.6766  -0.6959  -1.8946
