27

Co      0.0250  0.0427  0.0422
Cl      0.0002  -2.3565  -0.2192
Cl      -0.0001  2.2933  0.2084
N       -1.4251  0.2088  -1.3943
N       -1.4382  -0.2231  1.4344
N       1.4627  0.1914  -1.3677
N       1.3187  -0.2053  1.2607
C       -2.7430  0.3538  -0.6734
C       -2.7433  -0.3474  0.6529
C       2.7922  0.3731  -0.6841
C       2.6942  -0.3368  0.6244
H       -1.4194  0.8889  -2.1491
H       -2.7944  1.4143  -0.4954
H       -3.6044  0.0624  -1.2583
H       -3.6191  -0.0950  1.2363
H       -2.7664  -1.4038  0.4502
H       -1.3639  0.6739  1.9015
H       -1.4441  -0.9739  2.1197
H       1.3472  -0.7878  -1.6889
H       1.4358  0.8333  -2.1653
H       3.6472  0.0649  -1.2647
H       2.8535  1.4373  -0.5130
H       2.7275  -1.3970  0.3991
H       3.4852  -0.1167  1.3212
H       1.2595  -0.9572  1.9298
H       1.2100  0.6826  1.7326
H       -1.3044  -0.7521  -1.7695
