27

Co      -0.0250  0.0061  -0.0389
Cl      0.0002  -2.2952  -0.2214
Cl      -0.0001  2.2912  0.2255
N       -1.4669  0.1154  -1.2573
N       -1.5324  -0.1115  1.2940
N       1.5079  0.1328  -1.3574
N       1.5733  -0.1284  1.3942
C       -2.7015  0.3981  -0.5727
C       -2.7508  -0.4178  0.6095
C       2.7015  0.3935  -0.5820
C       2.7508  -0.4129  0.6188
H       -1.3100  0.8367  -1.9437
H       -2.7235  1.4498  -0.3159
H       -3.5464  0.1876  -1.2059
H       -3.6200  -0.1497  1.1856
H       -2.8019  -1.4708  0.3855
H       -1.6034  0.7824  1.7415
H       -1.3473  -0.8004  2.0046
H       1.5936  -0.7337  -1.8651
H       1.3922  0.8720  -2.0267
H       3.5919  0.1790  -1.1605
H       2.7137  1.4387  -0.3340
H       2.7922  -1.4622  0.4035
H       3.6655  -0.1406  1.1402
H       1.4291  -0.8352  2.0877
H       1.6585  0.7604  1.8655
H       -1.5382  -0.7542  -1.7412
