27

Co      -0.0490  -0.0488  -0.0034
Cl      0.0068  -2.3073  -0.2142
Cl      0.0064  2.3747  0.2211
N       -1.5519  0.1623  -1.4180
N       -1.5519  -0.1523  1.4145
N       1.5780  0.1589  -1.3624
N       1.5780  -0.1485  1.3590
C       -2.7268  0.3770  -0.6043
C       -2.7270  -0.3763  0.6077
C       2.7825  0.3835  -0.5947
C       2.7826  -0.3824  0.5981
H       -1.3146  0.9978  -1.9335
H       -2.8829  1.4209  -0.3755
H       -3.5276  0.0546  -1.2529
H       -3.5321  -0.0468  1.2519
H       -2.8836  -1.4174  0.3856
H       -1.4320  0.7377  1.8948
H       -1.3521  -0.9310  2.0037
H       1.4841  -0.6940  -1.8966
H       1.3540  0.9681  -1.9141
H       3.5603  0.0640  -1.2759
H       2.9484  1.4247  -0.3597
H       2.9493  -1.4236  0.3699
H       3.5602  -0.0557  1.2794
H       1.3912  -0.9008  1.9844
H       1.4567  0.7580  1.8094
H       -1.4547  -0.6741  -1.9820
