27

Co      0.0000  0.0427  0.0422
Cl      0.0002  -2.3049  -0.2175
Cl      -0.0001  2.2418  0.2067
N       -1.3751  0.1608  -1.3132
N       -1.3097  -0.1751  1.2796
N       1.3751  0.1570  -1.3131
N       1.3096  -0.1709  1.2797
C       -2.7472  0.3493  -0.6779
C       -2.6983  -0.3282  0.6377
C       2.7472  0.3493  -0.6780
C       2.6983  -0.3277  0.6379
H       -1.5215  0.8952  -2.0625
H       -2.7034  1.4185  -0.5220
H       -3.5898  0.1372  -1.3136
H       -3.5116  -0.1796  1.3354
H       -2.6264  -1.3933  0.4424
H       -1.4751  0.5856  1.9494
H       -1.4481  -0.9998  1.9300
H       1.5221  -0.6767  -1.8574
H       1.5217  0.8911  -2.0665
H       3.5898  0.1406  -1.3138
H       2.6998  1.4223  -0.5189
H       2.6229  -1.3967  0.4393
H       3.5161  -0.1825  1.3310
H       1.4480  -0.9953  1.9342
H       1.4831  0.5863  1.9453
H       -1.5184  -0.6785  -1.8615
