27

Co      0.0250  0.0488  0.0034
Cl      0.0002  -2.3122  -0.2118
Cl      -0.0001  2.2449  0.2051
N       -1.3679  0.1761  -1.3076
N       -1.4465  -0.1863  1.3845
N       1.4055  0.1586  -1.2810
N       1.3269  -0.1684  1.2108
C       -2.7915  0.3925  -0.6936
C       -2.8408  -0.4065  0.7098
C       2.8406  0.4118  -0.7042
C       2.7917  -0.3959  0.6813
H       -1.2627  0.9089  -1.9886
H       -2.8012  1.4617  -0.5505
H       -3.6441  0.1119  -1.2969
H       -3.7280  -0.1078  1.2589
H       -2.8510  -1.4785  0.5748
H       -1.6600  0.6034  2.0029
H       -1.3243  -0.9572  2.0205
H       1.5824  -0.6908  -1.7903
H       1.2791  0.8534  -2.0092
H       3.6870  0.1100  -1.3033
H       2.8603  1.4876  -0.5681
H       2.8121  -1.4718  0.5237
H       3.5985  -0.1250  1.3393
H       1.1441  -0.9404  1.8350
H       1.5106  0.6122  1.8340
H       -1.5397  -0.6530  -1.8709
