27

Co      0.0741  0.0488  0.0034
Cl      -0.0063  -2.3514  -0.2171
Cl      -0.0067  2.2841  0.2105
N       -1.4182  0.1737  -1.3051
N       -1.4182  -0.1839  1.3084
N       1.3511  0.1595  -1.2605
N       1.3510  -0.1693  1.2638
C       -2.7716  0.3778  -0.6731
C       -2.7718  -0.3771  0.6697
C       2.7161  0.3758  -0.6740
C       2.7162  -0.3747  0.6707
H       -1.3557  0.8903  -2.0188
H       -2.8213  1.4498  -0.5493
H       -3.6585  0.0469  -1.2091
H       -3.6540  -0.0525  1.2104
H       -2.8220  -1.4491  0.5392
H       -1.6235  0.6027  1.9334
H       -1.3191  -0.9582  1.9476
H       1.5165  -0.6705  -1.8058
H       1.2347  0.8838  -1.9559
H       3.5803  0.0450  -1.2319
H       2.7660  1.4516  -0.5489
H       2.7668  -1.4505  0.5388
H       3.5802  -0.0501  1.2287
H       1.1978  -0.9512  1.8848
H       1.5429  0.6066  1.8937
H       -1.6013  -0.6671  -1.8456
