27

Co      0.0000  0.0427  0.0422
Cl      0.0002  -2.3211  -0.2213
Cl      -0.0001  2.2579  0.2106
N       -1.4879  0.1448  -1.3496
N       -1.4224  -0.1591  1.3160
N       1.4879  0.1447  -1.3495
N       1.4224  -0.1586  1.3161
C       -2.7954  0.4109  -0.6779
C       -2.7466  -0.3897  0.6377
C       2.7955  0.4108  -0.6781
C       2.7466  -0.3893  0.6380
H       -1.3893  0.8240  -2.0963
H       -2.7929  1.4812  -0.5283
H       -3.7286  0.1227  -1.1687
H       -3.6504  -0.1651  1.1905
H       -2.7158  -1.4559  0.4486
H       -1.6480  0.6265  1.9302
H       -1.3159  -0.9287  1.9638
H       1.6913  -0.7177  -1.8420
H       1.3895  0.8237  -2.0965
H       3.7285  0.1223  -1.1689
H       2.7930  1.4812  -0.5289
H       2.7161  -1.4556  0.4493
H       3.6549  -0.1643  1.1861
H       1.3158  -0.9279  1.9641
H       1.6523  0.6272  1.9299
H       -1.6913  -0.7195  -1.8424
