27

Co      -0.0250  -0.0488  -0.0034
Cl      0.0002  -2.3073  -0.2142
Cl      -0.0001  2.3747  0.2211
N       -1.5210  0.1251  -1.3346
N       -1.5210  -0.1151  1.3312
N       1.5620  0.1386  -1.4347
N       1.5619  -0.1283  1.4314
C       -2.7872  0.4339  -0.6479
C       -2.7874  -0.4332  0.6513
C       2.7873  0.4293  -0.6571
C       2.7874  -0.4282  0.6606
H       -1.0062  0.9729  -1.7723
H       -2.8941  1.4935  -0.4727
H       -3.6842  0.0788  -1.1546
H       -3.6842  -0.0710  1.1581
H       -2.8947  -1.4927  0.4828
H       -1.6039  0.6893  1.9238
H       -1.0436  -0.9061  1.8425
H       1.6902  -0.6032  -2.1313
H       1.0883  1.0045  -1.8635
H       3.7297  0.0695  -1.1092
H       2.8805  1.4889  -0.4870
H       2.8814  -1.4878  0.4971
H       3.7297  -0.0612  1.1127
H       1.1299  -0.9372  1.9338
H       1.6628  0.6673  2.0442
H       -1.6310  -0.6257  -2.0111
