27

Co      0.0000  0.0488  0.0034
Cl      0.0002  -2.2716  -0.2176
Cl      -0.0001  2.2043  0.2109
N       -1.3755  0.1677  -1.2713
N       -1.4540  -0.1780  1.3482
N       1.4540  0.1677  -1.3449
N       1.3754  -0.1775  1.2746
C       -2.7210  0.3762  -0.6270
C       -2.7703  -0.3902  0.6432
C       2.7702  0.3909  -0.6467
C       2.7212  -0.3751  0.6238
H       -1.3544  0.7995  -2.0878
H       -2.7083  1.4309  -0.3820
H       -3.5485  0.1840  -1.2922
H       -3.6368  -0.1798  1.2497
H       -2.7581  -1.4449  0.4063
H       -1.3971  0.7716  1.7208
H       -1.4160  -0.8478  2.1197
H       1.3705  -0.8362  -1.6326
H       1.4528  0.7796  -2.1867
H       3.6368  0.1782  -1.2531
H       2.7575  1.4456  -0.4170
H       2.7093  -1.4298  0.3726
H       3.5484  -0.1932  1.2891
H       1.3133  -0.8666  2.0126
H       1.2987  0.7576  1.6763
H       -1.2723  -0.8212  -1.5888
