27

Co      -0.0490  0.0061  -0.0389
Cl      0.0068  -2.2523  -0.2085
Cl      0.0064  2.2483  0.2127
N       -1.5040  0.1529  -1.3471
N       -1.5694  -0.1490  1.3838
N       1.5302  0.1496  -1.2915
N       1.5955  -0.1452  1.3283
C       -2.7085  0.3709  -0.5828
C       -2.7578  -0.3906  0.6196
C       2.7642  0.3774  -0.5732
C       2.8134  -0.3967  0.6100
H       -1.2942  0.9619  -1.9058
H       -2.8575  1.4128  -0.3376
H       -3.4757  0.0732  -1.2844
H       -3.5538  -0.0353  1.2596
H       -2.9358  -1.4338  0.4072
H       -1.4634  0.7359  1.8717
H       -1.3314  -0.9257  1.9666
H       1.4231  -0.7295  -1.7860
H       1.3336  0.9322  -1.8864
H       3.5084  0.0826  -1.3074
H       2.9230  1.4165  -0.3219
H       3.0015  -1.4399  0.3915
H       3.5819  -0.0442  1.2872
H       1.3706  -0.8955  1.9474
H       1.4880  0.7562  1.7864
H       -1.3937  -0.7076  -1.8714
