27

Co      0.0000  -0.0061  0.0389
Cl      0.0002  -2.2750  -0.2216
Cl      -0.0001  2.2792  0.2176
N       -1.3779  0.1672  -1.2967
N       -1.3910  -0.1714  1.3334
N       1.4565  0.1671  -1.3703
N       1.3124  -0.1709  1.2599
C       -2.7099  0.3864  -0.6437
C       -2.7102  -0.3800  0.6265
C       2.7591  0.4011  -0.6634
C       2.6611  -0.3648  0.6071
H       -1.3222  0.8094  -2.0885
H       -2.7044  1.4432  -0.4099
H       -3.5532  0.1743  -1.2768
H       -3.5679  -0.2002  1.2581
H       -2.6765  -1.4326  0.3748
H       -1.3207  0.7946  1.6806
H       -1.3841  -0.8272  2.1297
H       1.3864  -0.8218  -1.6799
H       1.4206  0.7895  -2.1874
H       3.6415  0.1685  -1.2376
H       2.7536  1.4579  -0.4449
H       2.6277  -1.4175  0.3411
H       3.4795  -0.2136  1.2975
H       1.2814  -0.8460  2.0226
H       1.2222  0.7806  1.6361
H       -1.2882  -0.8089  -1.6361
