27

Co      0.0000  0.0000  0.0000
Cl      0.0002  -2.2785  -0.2084
Cl      -0.0001  2.2786  0.2085
N       -1.4149  0.1771  -1.2792
N       -1.4149  -0.1772  1.2791
N       1.4149  0.1733  -1.2791
N       1.4149  -0.1730  1.2791
C       -2.7794  0.3768  -0.6718
C       -2.7797  -0.3761  0.6718
C       2.7795  0.3768  -0.6719
C       2.7796  -0.3757  0.6720
H       -1.3086  0.9281  -1.9446
H       -2.8382  1.4488  -0.5474
H       -3.6515  0.0423  -1.2223
H       -3.6469  -0.0412  1.2270
H       -2.8389  -1.4481  0.5474
H       -1.5960  0.6310  1.8671
H       -1.3091  -0.9286  1.9442
H       1.6045  -0.6316  -1.8627
H       1.3088  0.9240  -1.9486
H       3.6515  0.0456  -1.2224
H       2.8346  1.4526  -0.5442
H       2.8354  -1.4515  0.5443
H       3.6514  -0.0440  1.2226
H       1.3090  -0.9241  1.9483
H       1.6040  0.6317  1.8631
H       -1.6008  -0.6313  -1.8668
