27

Co      -0.0250  -0.0427  -0.0422
Cl      0.0002  -2.2702  -0.2069
Cl      -0.0001  2.3335  0.2178
N       -1.5628  0.1614  -1.3701
N       -1.5497  -0.1474  1.3298
N       1.5253  0.1750  -1.3966
N       1.6692  -0.1606  1.5036
C       -2.8268  0.4099  -0.6213
C       -2.8271  -0.4149  0.6419
C       2.7778  0.3905  -0.6109
C       2.8761  -0.4246  0.6708
H       -1.1542  0.9601  -1.8886
H       -2.9307  1.4538  -0.3725
H       -3.6717  0.1161  -1.2263
H       -3.6614  -0.0813  1.2442
H       -2.9600  -1.4629  0.4178
H       -1.3302  0.7932  1.7299
H       -1.1303  -0.8762  1.9171
H       1.3466  -0.6805  -1.9374
H       1.1382  1.0113  -1.8722
H       3.6288  0.1210  -1.2202
H       2.8681  1.4345  -0.3524
H       2.9957  -1.4727  0.4665
H       3.7907  -0.0660  1.1640
H       1.3103  -0.8876  2.1070
H       1.4827  0.7859  1.8944
H       -1.3856  -0.7157  -1.8613
