27

Co      0.0490  0.0427  0.0422
Cl      -0.0063  -2.3087  -0.2250
Cl      -0.0067  2.2455  0.2142
N       -1.4441  0.1334  -1.2702
N       -1.3787  -0.1477  1.2367
N       1.4180  0.1366  -1.3257
N       1.3525  -0.1505  1.2923
C       -2.7354  0.4134  -0.7043
C       -2.6865  -0.3922  0.6641
C       2.6798  0.4068  -0.7142
C       2.6309  -0.3853  0.6742
H       -1.4725  0.7934  -2.0719
H       -2.6994  1.4846  -0.5348
H       -3.5458  0.2261  -1.3923
H       -3.4677  -0.2686  1.4140
H       -2.6223  -1.4593  0.4551
H       -1.6515  0.6329  1.8545
H       -1.3991  -0.8981  1.9394
H       1.6654  -0.7044  -1.8513
H       1.4335  0.8225  -2.0918
H       3.5131  0.2159  -1.3724
H       2.6312  1.4781  -0.5517
H       2.5544  -1.4524  0.4721
H       3.4394  -0.2579  1.3896
H       1.3598  -0.9267  1.9594
H       1.6264  0.6140  1.9392
H       -1.6948  -0.7258  -1.7667
