27

Co      0.0000  -0.0061  0.0389
Cl      0.0002  -2.2358  -0.2162
Cl      -0.0001  2.2400  0.2123
N       -1.4213  0.1354  -1.2825
N       -1.4344  -0.1396  1.3192
N       1.4998  0.1354  -1.3561
N       1.3558  -0.1392  1.2457
C       -2.7370  0.4121  -0.6436
C       -2.7372  -0.4057  0.6264
C       2.7862  0.4268  -0.6633
C       2.6881  -0.3905  0.6070
H       -1.2148  0.8596  -1.9417
H       -2.8023  1.4689  -0.4373
H       -3.5468  0.1353  -1.2932
H       -3.5615  -0.1612  1.2745
H       -2.7743  -1.4583  0.4022
H       -1.4984  0.7232  1.8227
H       -1.2766  -0.8773  1.9830
H       1.5641  -0.7504  -1.8220
H       1.3132  0.8396  -2.0450
H       3.6351  0.1251  -1.2540
H       2.8515  1.4836  -0.4723
H       2.7255  -1.4433  0.3685
H       3.4731  -0.1702  1.3139
H       1.1783  -0.8961  1.8802
H       1.3999  0.7092  1.7782
H       -1.4659  -0.7375  -1.7782
