27

Co      0.0000  0.0000  0.0000
Cl      0.0002  -2.2451  -0.2142
Cl      -0.0001  2.2451  0.2143
N       -1.4216  0.1419  -1.3448
N       -1.4216  -0.1421  1.3447
N       1.4216  0.1419  -1.3447
N       1.4215  -0.1416  1.3447
C       -2.7367  0.3975  -0.6482
C       -2.7370  -0.3968  0.6481
C       2.7368  0.3975  -0.6483
C       2.7370  -0.3964  0.6484
H       -1.4739  0.8789  -2.0682
H       -2.7225  1.4609  -0.4639
H       -3.5692  0.1824  -1.2980
H       -3.5646  -0.1813  1.3026
H       -2.7231  -1.4602  0.4639
H       -1.7213  0.6554  1.9386
H       -1.4744  -0.8795  2.0677
H       1.7260  -0.6560  -1.9379
H       1.4741  0.8786  -2.0684
H       3.5691  0.1820  -1.2981
H       2.7226  1.4609  -0.4646
H       2.7234  -1.4598  0.4646
H       3.5691  -0.1804  1.2982
H       1.4743  -0.8787  2.0681
H       1.7255  0.6561  1.9383
H       -1.7260  -0.6558  -1.9383
