27

Co      0.0000  -0.0061  0.0389
Cl      0.0002  -2.2802  -0.2180
Cl      -0.0001  2.2844  0.2140
N       -1.4321  0.1759  -1.2794
N       -1.4452  -0.1801  1.3161
N       1.5107  0.1758  -1.3530
N       1.3666  -0.1796  1.2426
C       -2.7797  0.3847  -0.6437
C       -2.7799  -0.3783  0.6265
C       2.8288  0.3994  -0.6634
C       2.7308  -0.3631  0.6071
H       -1.3782  0.8216  -2.0695
H       -2.7933  1.4415  -0.4168
H       -3.6109  0.1553  -1.2906
H       -3.6256  -0.1812  1.2719
H       -2.7653  -1.4309  0.3817
H       -1.3697  0.7825  1.6685
H       -1.4400  -0.8393  2.1107
H       1.4354  -0.8097  -1.6678
H       1.4766  0.8017  -2.1684
H       3.6992  0.1495  -1.2514
H       2.8425  1.4562  -0.4518
H       2.7165  -1.4158  0.3480
H       3.5372  -0.1946  1.3113
H       1.3373  -0.8582  2.0036
H       1.2713  0.7685  1.6240
H       -1.3372  -0.7967  -1.6240
