27

Co      -0.0250  -0.0427  -0.0422
Cl      0.0002  -2.2578  -0.2105
Cl      -0.0001  2.3211  0.2214
N       -1.4720  0.1066  -1.3021
N       -1.4588  -0.0925  1.2618
N       1.4344  0.1202  -1.3286
N       1.5783  -0.1057  1.4357
C       -2.7441  0.4050  -0.5537
C       -2.7443  -0.4100  0.5742
C       2.6951  0.3856  -0.5433
C       2.7934  -0.4197  0.6032
H       -1.1832  0.9708  -1.7907
H       -2.9393  1.4547  -0.3716
H       -3.5563  -0.0050  -1.1475
H       -3.5415  0.0398  1.1699
H       -2.9685  -1.4610  0.4169
H       -1.6519  0.6905  1.8909
H       -1.1593  -0.8868  1.8192
H       1.6728  -0.5778  -2.0983
H       1.1672  1.0220  -1.7788
H       3.5134  -0.0046  -1.1386
H       2.8795  1.4326  -0.3515
H       3.0071  -1.4708  0.4655
H       3.6753  0.0595  1.0824
H       1.3438  -0.8983  2.0136
H       1.8090  0.6832  2.0554
H       -1.7118  -0.6130  -2.0223
