27

Co      0.0000  0.0488  0.0034
Cl      0.0002  -2.3194  -0.2118
Cl      -0.0001  2.2521  0.2051
N       -1.3952  0.2093  -1.3606
N       -1.3952  -0.2195  1.3639
N       1.3952  0.2055  -1.3606
N       1.3952  -0.2153  1.3640
C       -2.8198  0.3741  -0.7037
C       -2.8200  -0.3733  0.7003
C       2.8199  0.3740  -0.7038
C       2.8200  -0.3729  0.7006
H       -1.4391  0.8575  -2.1790
H       -2.7607  1.4432  -0.5400
H       -3.7256  0.1477  -1.2609
H       -3.7210  -0.1533  1.2622
H       -2.7614  -1.4453  0.5299
H       -1.4602  0.6591  1.8455
H       -1.4025  -0.9254  2.1078
H       1.4418  -0.7237  -1.7535
H       1.4393  0.8535  -2.1785
H       3.7255  0.1555  -1.2610
H       2.7571  1.4498  -0.5369
H       2.7579  -1.4487  0.5268
H       3.7255  -0.1607  1.2578
H       1.3980  -0.9209  2.1075
H       1.4682  0.6599  1.8414
H       -1.4380  -0.7235  -1.7576
