27

Co      -0.0741  -0.0427  -0.0422
Cl      0.0068  -2.2650  -0.2105
Cl      0.0064  2.3283  0.2214
N       -1.4678  0.1541  -1.4016
N       -1.4547  -0.1400  1.3613
N       1.4564  0.1644  -1.3725
N       1.6003  -0.1499  1.4796
C       -2.7338  0.3989  -0.6346
C       -2.7340  -0.4039  0.6552
C       2.7404  0.3861  -0.6144
C       2.8387  -0.4202  0.6743
H       -1.2784  0.9543  -1.9823
H       -2.7604  1.4516  -0.4132
H       -3.5911  0.1590  -1.2416
H       -3.5763  -0.1241  1.2639
H       -2.7897  -1.4607  0.4584
H       -1.4793  0.7351  1.8508
H       -1.2545  -0.8703  2.0108
H       1.5296  -0.6421  -1.9732
H       1.3016  0.9761  -1.9464
H       3.5809  0.1737  -1.2584
H       2.7632  1.4389  -0.3767
H       2.8908  -1.4770  0.4908
H       3.7429  -0.1187  1.2022
H       1.4737  -0.8524  2.1812
H       1.6658  0.7474  1.9303
H       -1.5392  -0.6576  -1.9822
