27

Co      0.0250  -0.0061  0.0389
Cl      0.0002  -2.2430  -0.2162
Cl      -0.0001  2.2472  0.2123
N       -1.4502  0.1823  -1.3989
N       -1.4633  -0.1866  1.4356
N       1.4878  0.1686  -1.3723
N       1.3438  -0.1724  1.2618
C       -2.7408  0.3817  -0.6530
C       -2.7410  -0.3753  0.6358
C       2.7899  0.4010  -0.6637
C       2.6919  -0.3647  0.6073
H       -1.4240  0.8499  -2.1670
H       -2.7236  1.4385  -0.4233
H       -3.6296  0.1715  -1.2312
H       -3.6443  -0.1973  1.2126
H       -2.6956  -1.4280  0.3882
H       -1.4069  0.7636  1.8103
H       -1.4858  -0.8676  2.2083
H       1.4134  -0.8135  -1.6889
H       1.4404  0.7981  -2.1794
H       3.6724  0.1702  -1.2376
H       2.7865  1.4578  -0.4447
H       2.6605  -1.4174  0.3408
H       3.5103  -0.2153  1.2975
H       1.3012  -0.8546  2.0147
H       1.2492  0.7723  1.6451
H       -1.3744  -0.7778  -1.7658
