27

Co      0.0490  0.0000  0.0000
Cl      -0.0063  -2.3286  -0.2213
Cl      -0.0067  2.3287  0.2214
N       -1.4357  0.1459  -1.2757
N       -1.5142  -0.1460  1.3492
N       1.4881  0.1491  -1.4048
N       1.4095  -0.1488  1.3312
C       -2.7111  0.3962  -0.6611
C       -2.7604  -0.4102  0.6807
C       2.7047  0.4044  -0.6907
C       2.6557  -0.3885  0.6711
H       -1.3849  0.8993  -1.9407
H       -2.7286  1.4518  -0.4289
H       -3.4216  0.2394  -1.4948
H       -3.5099  -0.2285  1.4557
H       -2.7784  -1.4658  0.4633
H       -1.6248  0.7015  1.8735
H       -1.4835  -0.8802  2.0433
H       1.5956  -0.6825  -1.9578
H       1.4440  0.9088  -2.0636
H       3.4772  0.2194  -1.4356
H       2.7096  1.4600  -0.4802
H       2.6613  -1.4442  0.4459
H       3.3888  -0.2276  1.4751
H       1.3460  -0.9285  1.9602
H       1.4969  0.6679  1.9140
H       -1.5269  -0.6872  -1.8290
