27

Co      0.0490  0.0488  0.0034
Cl      -0.0063  -2.3551  -0.2246
Cl      -0.0067  2.2879  0.2180
N       -1.4067  0.1320  -1.2513
N       -1.4067  -0.1422  1.2546
N       1.3806  0.1352  -1.3068
N       1.3805  -0.1450  1.3102
C       -2.7678  0.4015  -0.6401
C       -2.7681  -0.4008  0.6368
C       2.7123  0.3949  -0.6501
C       2.7125  -0.3938  0.6468
H       -1.4752  0.8129  -2.0447
H       -2.7753  1.4649  -0.4594
H       -3.5575  0.1708  -1.3441
H       -3.5530  -0.1764  1.3454
H       -2.7759  -1.4642  0.4493
H       -1.7116  0.6461  1.8631
H       -1.4386  -0.8808  1.9736
H       1.6600  -0.6911  -1.8599
H       1.4361  0.8420  -2.0646
H       3.5248  0.1606  -1.3213
H       2.7100  1.4584  -0.4763
H       2.7108  -1.4573  0.4663
H       3.5247  -0.1658  1.3181
H       1.3993  -0.9094  1.9936
H       1.6864  0.6272  1.9478
H       -1.6895  -0.7104  -1.7753
