27

Co      -0.0250  0.0061  -0.0389
Cl      0.0002  -2.3359  -0.2156
Cl      -0.0001  2.3318  0.2198
N       -1.4546  0.1391  -1.3142
N       -1.4415  -0.1352  1.2773
N       1.4171  0.1527  -1.3407
N       1.5610  -0.1483  1.4511
C       -2.8234  0.4029  -0.5809
C       -2.8236  -0.4079  0.5980
C       2.7744  0.3836  -0.5705
C       2.8727  -0.4176  0.6270
H       -1.3088  0.8879  -1.9707
H       -2.9246  1.4498  -0.3646
H       -3.6344  0.0820  -1.2226
H       -3.6196  -0.0539  1.2416
H       -2.9539  -1.4589  0.3998
H       -1.5085  0.7262  1.7889
H       -1.2479  -0.8713  1.9285
H       1.5025  -0.6775  -1.9088
H       1.2928  0.9391  -1.9543
H       3.5916  0.0869  -1.2137
H       2.8648  1.4306  -0.3445
H       2.9924  -1.4687  0.4485
H       3.7535  -0.0387  1.1541
H       1.4279  -0.8827  2.1184
H       1.6656  0.7189  1.9534
H       -1.5415  -0.7127  -1.8328
