27

Co      0.0000  0.0061  -0.0389
Cl      0.0002  -2.3076  -0.2177
Cl      -0.0001  2.3036  0.2219
N       -1.6302  0.1361  -1.3979
N       -1.6171  -0.1321  1.3609
N       1.5517  0.1397  -1.3242
N       1.6956  -0.1354  1.4346
C       -2.7865  0.4085  -0.5835
C       -2.7867  -0.4135  0.6006
C       2.7375  0.3937  -0.5640
C       2.8358  -0.4278  0.6205
H       -1.2850  0.8825  -1.9952
H       -2.8621  1.4515  -0.3122
H       -3.6991  0.1375  -1.1105
H       -3.6889  -0.1094  1.1249
H       -2.8913  -1.4577  0.3474
H       -1.4463  0.7976  1.7743
H       -1.2241  -0.8659  1.9530
H       1.3729  -0.7716  -1.7773
H       1.1870  0.9056  -1.8886
H       3.6107  0.1432  -1.1499
H       2.8168  1.4302  -0.2823
H       2.9445  -1.4684  0.3862
H       3.7726  -0.0950  1.0903
H       1.3222  -0.8492  2.0527
H       1.5360  0.8130  1.8219
H       -1.4748  -0.7840  -1.8181
