27

Co      0.0490  0.0000  0.0000
Cl      -0.0063  -2.2823  -0.2159
Cl      -0.0067  2.2823  0.2160
N       -1.4890  0.1805  -1.2586
N       -1.4890  -0.1806  1.2585
N       1.4628  0.1837  -1.3141
N       1.4628  -0.1834  1.3141
C       -2.7716  0.4197  -0.6803
C       -2.7719  -0.4190  0.6802
C       2.7161  0.4131  -0.6902
C       2.7163  -0.4120  0.6903
H       -1.3450  0.7996  -2.0547
H       -2.8424  1.4801  -0.4757
H       -3.5556  0.1603  -1.3785
H       -3.5555  -0.1592  1.3787
H       -2.8430  -1.4794  0.4758
H       -1.4848  0.7805  1.6040
H       -1.3454  -0.8002  2.0542
H       1.4556  -0.7615  -1.6883
H       1.3059  0.8287  -2.0701
H       3.5228  0.1545  -1.3586
H       2.7743  1.4736  -0.4927
H       2.7751  -1.4725  0.4928
H       3.5228  -0.1530  1.3588
H       1.3016  -0.8288  2.0698
H       1.4551  0.7616  1.6887
H       -1.4851  -0.7809  -1.6037
