27

Co      0.0000  -0.0488  -0.0034
Cl      0.0002  -2.2630  -0.2125
Cl      -0.0001  2.3303  0.2194
N       -1.5803  0.1555  -1.4390
N       -1.5018  -0.1455  1.3619
N       1.5018  0.1554  -1.3653
N       1.5803  -0.1450  1.4356
C       -2.7450  0.3893  -0.6093
C       -2.6961  -0.3739  0.5930
C       2.6960  0.3746  -0.5897
C       2.7452  -0.3882  0.6128
H       -1.3594  0.9665  -1.9889
H       -2.8941  1.4333  -0.3793
H       -3.5625  0.0683  -1.2344
H       -3.4786  -0.0702  1.2727
H       -2.8456  -1.4150  0.3551
H       -1.3789  0.7470  1.8387
H       -1.2987  -0.9193  1.9560
H       1.4015  -0.6836  -1.9255
H       1.2614  0.9858  -1.8860
H       3.4741  0.0777  -1.2739
H       2.8451  1.4157  -0.3456
H       2.8950  -1.4294  0.3901
H       3.5624  -0.0596  1.2381
H       1.3968  -0.8989  2.0594
H       1.4723  0.7624  1.8825
H       -1.4997  -0.6981  -1.9701
