27

Co      0.0250  -0.0061  0.0389
Cl      0.0002  -2.3266  -0.2233
Cl      -0.0001  2.3307  0.2193
N       -1.4010  0.1455  -1.3867
N       -1.4141  -0.1497  1.4235
N       1.4385  0.1317  -1.3602
N       1.2945  -0.1355  1.2497
C       -2.7719  0.4217  -0.6866
C       -2.7721  -0.4153  0.6694
C       2.8210  0.4410  -0.6973
C       2.7230  -0.4047  0.6409
H       -1.4197  0.8765  -2.0991
H       -2.7277  1.4844  -0.5001
H       -3.5922  0.2287  -1.3673
H       -3.6024  -0.2546  1.3532
H       -2.6997  -1.4767  0.4650
H       -1.7276  0.6440  2.0257
H       -1.4815  -0.8942  2.1404
H       1.7386  -0.6940  -1.9043
H       1.4362  0.8247  -2.1160
H       3.6350  0.2230  -1.3737
H       2.7905  1.5065  -0.5215
H       2.6646  -1.4661  0.4176
H       3.4729  -0.2681  1.4336
H       1.3013  -0.8812  1.9512
H       1.5744  0.6528  1.8605
H       -1.6996  -0.6583  -1.9812
