27

Co      -0.0250  -0.0427  -0.0422
Cl      0.0002  -2.3060  -0.2197
Cl      -0.0001  2.3693  0.2306
N       -1.4627  0.1228  -1.2639
N       -1.5281  -0.1087  1.2972
N       1.5037  0.1401  -1.3640
N       1.5691  -0.1256  1.3974
C       -2.7722  0.4217  -0.5964
C       -2.8215  -0.4415  0.6365
C       2.7723  0.4172  -0.6056
C       2.8215  -0.4365  0.6459
H       -1.2591  0.8659  -1.9116
H       -2.7640  1.4707  -0.3244
H       -3.5861  0.2478  -1.2905
H       -3.6597  -0.2031  1.2736
H       -2.8423  -1.4945  0.4041
H       -1.5805  0.8160  1.6976
H       -1.3333  -0.7623  2.0432
H       1.5977  -0.7033  -1.9088
H       1.3412  0.9012  -1.9946
H       3.6316  0.2391  -1.2451
H       2.7542  1.4624  -0.3425
H       2.8327  -1.4858  0.4221
H       3.7051  -0.1940  1.2282
H       1.4152  -0.7971  2.1263
H       1.6357  0.7940  1.8217
H       -1.5423  -0.7238  -1.7848
