27

Co      0.0000  0.0000  0.0000
Cl      0.0002  -2.2823  -0.2159
Cl      -0.0001  2.2823  0.2160
N       -1.4236  0.1398  -1.3059
N       -1.4236  -0.1399  1.3058
N       1.4236  0.1397  -1.3058
N       1.4235  -0.1394  1.3058
C       -2.8078  0.4329  -0.6603
C       -2.8080  -0.4322  0.6603
C       2.8078  0.4329  -0.6605
C       2.8080  -0.4318  0.6605
H       -1.2130  0.8637  -1.9658
H       -2.8285  1.4848  -0.4333
H       -3.5939  0.2056  -1.3700
H       -3.5938  -0.2045  1.3702
H       -2.8291  -1.4869  0.4333
H       -1.4726  0.7318  1.8005
H       -1.2135  -0.8643  1.9653
H       1.4729  -0.7324  -1.7998
H       1.2132  0.8634  -1.9660
H       3.5938  0.2052  -1.3702
H       2.8286  1.4876  -0.4340
H       2.8294  -1.4865  0.4340
H       3.5938  -0.2036  1.3703
H       1.2134  -0.8635  1.9657
H       1.4724  0.7325  1.8002
H       -1.4729  -0.7321  -1.8002
