27

Co      0.0000  0.0000  0.0000
Cl      0.0002  -2.3338  -0.2176
Cl      -0.0001  2.3339  0.2177
N       -1.5924  0.1556  -1.3679
N       -1.5138  -0.1558  1.2942
N       1.5138  0.1556  -1.2942
N       1.5923  -0.1553  1.3679
C       -2.7839  0.3949  -0.6159
C       -2.7351  -0.3794  0.5962
C       2.7349  0.3801  -0.5963
C       2.7841  -0.3937  0.6161
H       -1.2276  0.9108  -1.9456
H       -2.9424  1.4437  -0.4041
H       -3.6636  0.0222  -1.1417
H       -3.5797  -0.0309  1.1766
H       -2.8939  -1.4254  0.3698
H       -1.3121  0.7468  1.7585
H       -1.1299  -0.9310  1.8421
H       1.3078  -0.7474  -1.7578
H       1.1297  0.9301  -1.8428
H       3.5752  0.0316  -1.1812
H       2.8934  1.4261  -0.3704
H       2.9433  -1.4398  0.4048
H       3.6635  -0.0202  1.1420
H       1.2280  -0.9106  1.9455
H       1.4054  0.7622  1.8024
H       -1.4060  -0.7619  -1.8024
