27

Co      -0.0490  -0.0488  -0.0034
Cl      0.0068  -2.2682  -0.2089
Cl      0.0064  2.3355  0.2157
N       -1.6130  0.1752  -1.4359
N       -1.5345  -0.1652  1.3588
N       1.5607  0.1719  -1.3066
N       1.6391  -0.1615  1.3769
C       -2.7915  0.3847  -0.6419
C       -2.7426  -0.3692  0.6257
C       2.7981  0.3764  -0.6126
C       2.8473  -0.3901  0.6357
H       -1.3045  0.9656  -1.9961
H       -2.8724  1.4470  -0.4726
H       -3.7913  0.0246  -1.0154
H       -3.7029  -0.0266  1.0582
H       -2.8239  -1.4288  0.4484
H       -1.4806  0.7131  1.8481
H       -1.2438  -0.9184  1.9632
H       1.5372  -0.6693  -1.8499
H       1.2458  0.9555  -1.8736
H       3.7356  0.0439  -1.0777
H       2.8888  1.4361  -0.4225
H       2.9387  -1.4497  0.4670
H       3.8239  -0.0257  1.0420
H       1.3812  -0.8686  2.0471
H       1.6080  0.7481  1.8069
H       -1.6060  -0.6642  -1.9795
