27

Co      -0.0490  0.0061  -0.0389
Cl      0.0068  -2.2915  -0.2139
Cl      0.0064  2.2875  0.2181
N       -1.4703  0.1118  -1.4088
N       -1.4572  -0.1079  1.3718
N       1.4180  0.1085  -1.2795
N       1.5619  -0.1041  1.3899
C       -2.7614  0.3996  -0.5775
C       -2.7616  -0.4046  0.5947
C       2.7679  0.3913  -0.5482
C       2.8663  -0.4254  0.6047
H       -1.0534  0.9865  -1.8397
H       -2.8435  1.4378  -0.3218
H       -3.6395  0.0995  -1.1333
H       -3.6292  -0.0715  1.1477
H       -2.8727  -1.4469  0.3570
H       -1.3138  0.7192  1.9635
H       -0.9925  -0.9699  1.7975
H       1.2735  -0.7128  -1.8778
H       0.9947  0.9764  -1.7216
H       3.5838  0.1144  -1.1927
H       2.8627  1.4296  -0.2717
H       2.9904  -1.4678  0.3757
H       3.7457  -0.0661  1.1331
H       1.1342  -0.9200  1.8858
H       1.4366  0.7542  1.9224
H       -1.3423  -0.7056  -2.0074
