27

Co      -0.0490  -0.0488  -0.0034
Cl      0.0068  -2.2238  -0.2072
Cl      0.0064  2.2912  0.2140
N       -1.5528  0.1274  -1.4327
N       -1.5528  -0.1175  1.4292
N       1.5790  0.1241  -1.3770
N       1.5790  -0.1137  1.3737
C       -2.7564  0.4346  -0.6393
C       -2.7566  -0.4339  0.6426
C       2.8120  0.4411  -0.6296
C       2.8122  -0.4400  0.6330
H       -0.9814  1.0202  -1.7930
H       -2.9145  1.4806  -0.4256
H       -3.6067  0.0755  -1.2042
H       -3.6112  -0.0676  1.2031
H       -2.9152  -1.4799  0.4357
H       -1.4901  0.7058  2.0102
H       -1.0189  -0.9534  1.8632
H       1.5421  -0.6621  -2.0120
H       1.0209  0.9904  -1.7780
H       3.6393  0.0805  -1.2272
H       2.9800  1.4871  -0.4099
H       2.9809  -1.4860  0.4200
H       3.6393  -0.0721  1.2307
H       1.0625  -0.9232  1.8484
H       1.5147  0.7261  1.9248
H       -1.5127  -0.6422  -2.0974
