27

Co      0.0000  -0.0488  -0.0034
Cl      0.0002  -2.2166  -0.2072
Cl      -0.0001  2.2840  0.2140
N       -1.5035  0.1560  -1.3427
N       -1.5035  -0.1460  1.3393
N       1.5036  0.1559  -1.3427
N       1.5035  -0.1455  1.3393
C       -2.8020  0.4052  -0.6381
C       -2.8022  -0.4045  0.6414
C       2.8021  0.4051  -0.6382
C       2.8022  -0.4040  0.6417
H       -1.3116  0.9331  -1.9489
H       -2.8601  1.4599  -0.4264
H       -3.6334  0.1380  -1.2696
H       -3.6334  -0.1301  1.2731
H       -2.8607  -1.4591  0.4365
H       -1.5439  0.7356  1.8165
H       -1.3491  -0.8664  2.0191
H       1.5711  -0.6723  -1.9033
H       1.3118  0.9328  -1.9491
H       3.6334  0.1376  -1.2697
H       2.8602  1.4599  -0.4270
H       2.8610  -1.4588  0.4372
H       3.6333  -0.1293  1.2732
H       1.3490  -0.8656  2.0195
H       1.5437  0.7363  1.8162
H       -1.5711  -0.6720  -1.9037
