27

Co      0.0741  0.0427  0.0422
Cl      -0.0063  -2.3101  -0.2138
Cl      -0.0067  2.2470  0.2031
N       -1.4625  0.1722  -1.3486
N       -1.3970  -0.1865  1.3151
N       1.3954  0.1580  -1.3040
N       1.3299  -0.1719  1.2706
C       -2.8768  0.3833  -0.6945
C       -2.8280  -0.3622  0.6543
C       2.8213  0.3813  -0.6953
C       2.7724  -0.3598  0.6552
H       -1.3820  0.9057  -2.0289
H       -2.8612  1.4410  -0.4966
H       -3.7072  0.1625  -1.3516
H       -3.6336  -0.2049  1.3689
H       -2.7842  -1.4186  0.4170
H       -1.3274  0.6407  1.8984
H       -1.3086  -1.0104  1.8964
H       1.2813  -0.7350  -1.7708
H       1.2610  0.8992  -1.9660
H       3.6290  0.1606  -1.3744
H       2.8059  1.4456  -0.4962
H       2.7290  -1.4200  0.4166
H       3.5553  -0.2025  1.3916
H       1.1873  -1.0034  1.8337
H       1.2423  0.6445  1.8587
H       -1.3662  -0.7336  -1.8106
