27

Co      -0.0741  0.0000  0.0000
Cl      0.0068  -2.2966  -0.2159
Cl      0.0064  2.2967  0.2160
N       -1.4793  0.1425  -1.3951
N       -1.4793  -0.1426  1.3950
N       1.5465  0.1528  -1.4396
N       1.5464  -0.1525  1.4396
C       -2.7293  0.4063  -0.6268
C       -2.7295  -0.4056  0.6268
C       2.7849  0.4083  -0.6262
C       2.7851  -0.4072  0.6263
H       -1.2119  0.9301  -1.9561
H       -2.8380  1.4474  -0.3770
H       -3.4933  0.1376  -1.3431
H       -3.4978  -0.1365  1.3387
H       -2.8387  -1.4467  0.3770
H       -1.3690  0.7324  1.8940
H       -1.2124  -0.9307  1.9556
H       1.4533  -0.7299  -1.9290
H       1.3333  0.9323  -2.0232
H       3.5715  0.1425  -1.3206
H       2.8899  1.4494  -0.3750
H       2.8907  -1.4483  0.3750
H       3.5714  -0.1409  1.3208
H       1.3335  -0.9323  2.0229
H       1.4528  0.7299  1.9294
H       -1.3647  -0.7327  -1.8937
