27

Co      0.0000  0.0000  0.0000
Cl      0.0002  -2.3018  -0.2123
Cl      -0.0001  2.3019  0.2124
N       -1.5620  0.1255  -1.3777
N       -1.5620  -0.1257  1.3776
N       1.5621  0.1255  -1.3776
N       1.5620  -0.1252  1.3776
C       -2.8228  0.4268  -0.6444
C       -2.8230  -0.4261  0.6444
C       2.8229  0.4268  -0.6446
C       2.8230  -0.4256  0.6446
H       -1.2432  0.9702  -1.8698
H       -2.9446  1.4815  -0.4670
H       -3.6421  0.0921  -1.2680
H       -3.6420  -0.0910  1.2682
H       -2.9452  -1.4808  0.4670
H       -1.7499  0.6164  2.0691
H       -1.2437  -0.9708  1.8694
H       1.7502  -0.6170  -2.0684
H       1.2434  0.9699  -1.8745
H       3.6420  0.0873  -1.2682
H       2.9447  1.4815  -0.4676
H       2.9455  -1.4804  0.4676
H       3.6420  -0.0857  1.2683
H       1.2480  -0.9700  1.8741
H       1.7497  0.6171  2.0688
H       -1.7502  -0.6167  -2.0688
