27

Co      0.0000  0.0000  0.0000
Cl      0.0002  -2.2823  -0.2159
Cl      -0.0001  2.2823  0.2160
N       -1.3712  0.1751  -1.2779
N       -1.4498  -0.1752  1.3514
N       1.4498  0.1750  -1.3515
N       1.3712  -0.1747  1.2779
C       -2.7918  0.3998  -0.6506
C       -2.8411  -0.4139  0.6702
C       2.8409  0.4145  -0.6704
C       2.7920  -0.3987  0.6508
H       -1.3035  0.8288  -2.0557
H       -2.7488  1.4517  -0.3905
H       -3.5882  0.2441  -1.3768
H       -3.6765  -0.2332  1.3377
H       -2.7985  -1.4685  0.4249
H       -1.3743  0.8052  1.6770
H       -1.4021  -0.8097  2.1583
H       1.3745  -0.8058  -1.6763
H       1.4019  0.8088  -2.1546
H       3.6765  0.2383  -1.3377
H       2.7980  1.4693  -0.4255
H       2.7497  -1.4534  0.3912
H       3.5881  -0.2466  1.3771
H       1.2994  -0.8285  2.0512
H       1.2758  0.7912  1.6325
H       -1.2764  -0.7909  -1.6325
