27

Co      0.0741  0.0488  0.0034
Cl      -0.0063  -2.3159  -0.2193
Cl      -0.0067  2.2487  0.2126
N       -1.4390  0.1444  -1.3129
N       -1.4390  -0.1547  1.3162
N       1.3719  0.1340  -1.2683
N       1.3719  -0.1438  1.2717
C       -2.8401  0.4294  -0.6797
C       -2.8403  -0.4287  0.6764
C       2.7846  0.4274  -0.6806
C       2.7847  -0.4263  0.6773
H       -1.3464  0.8132  -2.0753
H       -2.7910  1.4948  -0.4958
H       -3.7234  0.2093  -1.2700
H       -3.7189  -0.2150  1.2713
H       -2.7917  -1.4969  0.4857
H       -1.6706  0.6621  1.8858
H       -1.3098  -0.8811  2.0041
H       1.5598  -0.7298  -1.7620
H       1.2254  0.8105  -2.0086
H       3.6452  0.2037  -1.2927
H       2.7394  1.4957  -0.4991
H       2.7402  -1.4946  0.4891
H       3.6451  -0.2089  1.2895
H       1.1885  -0.8778  1.9376
H       1.5862  0.6659  1.8499
H       -1.6484  -0.7264  -1.7980
