27

Co      0.0741  0.0488  0.0034
Cl      -0.0063  -2.3194  -0.2118
Cl      -0.0067  2.2521  0.2051
N       -1.4513  0.1790  -1.3876
N       -1.4513  -0.1892  1.3909
N       1.3842  0.1648  -1.3430
N       1.3841  -0.1746  1.3464
C       -2.8475  0.3707  -0.6809
C       -2.8477  -0.3700  0.6775
C       2.7920  0.3687  -0.6817
C       2.7921  -0.3676  0.6784
H       -1.3923  0.9432  -2.0389
H       -2.8056  1.4263  -0.4666
H       -3.6920  0.1856  -1.3355
H       -3.6919  -0.1913  1.3323
H       -2.8063  -1.4284  0.4565
H       -1.3865  0.6406  1.9702
H       -1.3557  -1.0111  1.9678
H       1.2749  -0.7084  -1.8426
H       1.2713  0.9367  -1.9760
H       3.6137  0.1838  -1.3583
H       2.7503  1.4309  -0.4662
H       2.7511  -1.4298  0.4561
H       3.6136  -0.1889  1.3551
H       1.2344  -1.0041  1.9050
H       1.3013  0.6445  1.9305
H       -1.3598  -0.7050  -1.8823
