27

Co      0.0250  0.0000  0.0000
Cl      0.0002  -2.2771  -0.2195
Cl      -0.0001  2.2771  0.2196
N       -1.4188  0.1490  -1.3313
N       -1.4188  -0.1491  1.3312
N       1.3779  0.1353  -1.2311
N       1.3778  -0.1350  1.2311
C       -2.6830  0.3976  -0.6937
C       -2.6833  -0.3969  0.6937
C       2.6831  0.4021  -0.6847
C       2.6832  -0.4010  0.6848
H       -1.4570  0.8761  -2.0589
H       -2.6210  1.4668  -0.5099
H       -3.5154  0.2407  -1.3666
H       -3.5109  -0.2396  1.3713
H       -2.6217  -1.4660  0.5100
H       -1.6857  0.6580  1.9147
H       -1.4574  -0.8766  2.0585
H       1.6312  -0.6814  -1.7934
H       1.3752  0.8439  -1.9727
H       3.4699  0.2449  -1.4151
H       2.6319  1.4713  -0.4969
H       2.6328  -1.4702  0.4970
H       3.4698  -0.2433  1.4153
H       1.3754  -0.8440  1.9723
H       1.6307  0.6815  1.7937
H       -1.6904  -0.6583  -1.9144
