27

Co      0.0000  0.0488  0.0034
Cl      0.0002  -2.2787  -0.2176
Cl      -0.0001  2.2115  0.2109
N       -1.4502  0.1455  -1.3317
N       -1.4502  -0.1557  1.3349
N       1.4502  0.1454  -1.3316
N       1.4501  -0.1552  1.3350
C       -2.7139  0.3975  -0.6956
C       -2.7141  -0.3968  0.6922
C       2.7139  0.3975  -0.6957
C       2.7141  -0.3964  0.6924
H       -1.4953  0.8510  -2.0864
H       -2.6538  1.4666  -0.5147
H       -3.5463  0.2391  -1.3683
H       -3.5417  -0.2447  1.3696
H       -2.6545  -1.4659  0.5047
H       -1.7261  0.6177  1.9652
H       -1.4587  -0.9188  2.0152
H       1.7040  -0.6823  -1.8770
H       1.4955  0.8507  -2.0866
H       3.5462  0.2387  -1.3713
H       2.6511  1.4667  -0.5154
H       2.6519  -1.4656  0.5053
H       3.5462  -0.2438  1.3681
H       1.4586  -0.9181  2.0156
H       1.7304  0.6184  1.9649
H       -1.7040  -0.6820  -1.8774
