27

Co      -0.0490  0.0000  0.0000
Cl      0.0068  -2.2894  -0.2159
Cl      0.0064  2.2895  0.2160
N       -1.5010  0.1140  -1.3789
N       -1.5010  -0.1142  1.3788
N       1.5272  0.1107  -1.3233
N       1.5272  -0.1104  1.3233
C       -2.7255  0.4370  -0.6362
C       -2.7258  -0.4363  0.6362
C       2.7812  0.4435  -0.6265
C       2.7813  -0.4424  0.6266
H       -0.9392  0.9620  -1.7930
H       -2.8885  1.4830  -0.4241
H       -3.5531  0.0726  -1.2286
H       -3.5576  -0.0716  1.2242
H       -2.8892  -1.4823  0.4241
H       -1.4469  0.6935  1.9857
H       -0.9396  -0.9626  1.7925
H       1.4721  -0.7138  -1.9000
H       0.9786  0.9323  -1.7781
H       3.5857  0.0776  -1.2516
H       2.9540  1.4895  -0.4083
H       2.9549  -1.4884  0.4084
H       3.5857  -0.0761  1.2518
H       0.9832  -0.9324  1.7777
H       1.4716  0.7139  1.9004
H       -1.4427  -0.6939  -1.9854
