27

Co      0.0000  -0.0427  -0.0422
Cl      0.0002  -2.3094  -0.2122
Cl      -0.0001  2.3727  0.2231
N       -1.5534  0.1672  -1.3951
N       -1.5403  -0.1531  1.3548
N       1.4749  0.1671  -1.3214
N       1.6188  -0.1526  1.4285
C       -2.7591  0.3729  -0.6089
C       -2.7593  -0.3779  0.6295
C       2.7101  0.3581  -0.5894
C       2.8084  -0.3922  0.6493
H       -1.4192  0.9736  -1.9852
H       -2.8380  1.4283  -0.4085
H       -3.6418  0.0775  -1.1645
H       -3.6270  -0.0427  1.1868
H       -2.8673  -1.4346  0.4538
H       -1.5705  0.7183  1.8528
H       -1.3953  -0.8897  2.0137
H       1.5323  -0.6284  -1.9396
H       1.3212  0.9929  -1.8824
H       3.5534  0.0870  -1.2039
H       2.7890  1.4108  -0.3748
H       2.9167  -1.4490  0.4888
H       3.7153  -0.0320  1.1477
H       1.4934  -0.8692  2.1172
H       1.6685  0.7337  1.8966
H       -1.6305  -0.6408  -1.9842
