27

Co      -0.0250  0.0061  -0.0389
Cl      0.0002  -2.2987  -0.2139
Cl      -0.0001  2.2946  0.2181
N       -1.5368  0.1505  -1.3688
N       -1.5237  -0.1466  1.3319
N       1.4992  0.1641  -1.3953
N       1.6432  -0.1597  1.5057
C       -2.7205  0.3862  -0.5977
C       -2.7207  -0.3912  0.6148
C       2.6714  0.3669  -0.5873
C       2.7698  -0.4010  0.6438
H       -1.1731  0.9256  -1.9260
H       -2.8475  1.4330  -0.3622
H       -3.5999  0.0613  -1.1382
H       -3.5897  -0.0332  1.1526
H       -2.8768  -1.4392  0.3974
H       -1.3227  0.7649  1.7774
H       -1.1121  -0.9089  1.8838
H       1.3122  -0.7162  -1.8973
H       1.1570  0.9768  -1.9097
H       3.5571  0.0662  -1.1321
H       2.7849  1.4109  -0.3421
H       2.9125  -1.4491  0.4461
H       3.7190  -0.0180  1.0725
H       1.2922  -0.9204  2.0738
H       1.4753  0.7576  1.9419
H       -1.3512  -0.7514  -1.8212
