27

Co      0.0000  -0.0488  -0.0034
Cl      0.0002  -2.2682  -0.2089
Cl      -0.0001  2.3355  0.2157
N       -1.5768  0.1662  -1.4018
N       -1.5767  -0.1563  1.3983
N       1.5768  0.1662  -1.4017
N       1.5767  -0.1558  1.3983
C       -2.8268  0.4104  -0.6345
C       -2.8271  -0.4097  0.6378
C       2.8269  0.4104  -0.6346
C       2.8271  -0.4093  0.6381
H       -1.1645  0.9675  -1.9110
H       -2.9382  1.4564  -0.3969
H       -3.6871  0.1003  -1.2130
H       -3.6916  -0.0925  1.2120
H       -2.9388  -1.4557  0.4070
H       -1.3761  0.7749  1.8135
H       -1.2020  -0.9007  1.9812
H       1.3988  -0.7115  -1.9003
H       1.1647  0.9672  -1.9112
H       3.6871  0.0999  -1.2131
H       2.9383  1.4564  -0.3975
H       2.9391  -1.4553  0.4077
H       3.6870  -0.0916  1.2166
H       1.2019  -0.8999  1.9816
H       1.3713  0.7756  1.8132
H       -1.3988  -0.7113  -1.9007
