27

Co      0.0000  -0.0488  -0.0034
Cl      0.0002  -2.2238  -0.2072
Cl      -0.0001  2.2912  0.2140
N       -1.5251  0.1608  -1.4002
N       -1.5251  -0.1508  1.3967
N       1.5251  0.1607  -1.4001
N       1.5250  -0.1503  1.3967
C       -2.7972  0.4028  -0.6429
C       -2.7974  -0.4021  0.6462
C       2.7973  0.4027  -0.6430
C       2.7974  -0.4016  0.6464
H       -1.3403  0.9523  -1.9896
H       -2.8433  1.4575  -0.4312
H       -3.6549  0.1428  -1.2433
H       -3.6549  -0.1349  1.2468
H       -2.8440  -1.4568  0.4413
H       -1.5703  0.7213  1.8883
H       -1.3778  -0.8855  2.0598
H       1.5974  -0.6579  -1.9751
H       1.3405  0.9520  -1.9898
H       3.6549  0.1424  -1.2434
H       2.8435  1.4575  -0.4318
H       2.8443  -1.4564  0.4419
H       3.6548  -0.1341  1.2469
H       1.3777  -0.8847  2.0601
H       1.5700  0.7220  1.8880
H       -1.5974  -0.6577  -1.9755
