27

Co      -0.0741  0.0000  0.0000
Cl      0.0068  -2.2540  -0.2181
Cl      0.0064  2.2541  0.2182
N       -1.5829  0.1098  -1.3485
N       -1.5043  -0.1099  1.2748
N       1.5715  0.1238  -1.3194
N       1.6500  -0.1235  1.3930
C       -2.7409  0.4515  -0.5921
C       -2.6920  -0.4361  0.5724
C       2.7475  0.4387  -0.5719
C       2.7967  -0.4524  0.5916
H       -1.2493  0.8250  -1.9811
H       -2.9596  1.4917  -0.3579
H       -3.4965  0.0761  -1.2759
H       -3.4126  -0.0848  1.3108
H       -2.9112  -1.4735  0.3236
H       -1.5223  0.7688  1.7530
H       -1.1515  -0.8452  1.8775
H       1.6028  -0.7663  -1.7917
H       1.2725  0.8505  -1.9413
H       3.4863  0.0870  -1.2926
H       2.9661  1.4724  -0.3253
H       3.0161  -1.4861  0.3597
H       3.5746  -0.0756  1.2535
H       1.3708  -0.8309  2.0441
H       1.7005  0.7811  1.8362
H       -1.6162  -0.7839  -1.7969
