27

Co      0.0000  0.0427  0.0422
Cl      0.0002  -2.3139  -0.2213
Cl      -0.0001  2.2507  0.2106
N       -1.4452  0.1355  -1.2689
N       -1.4583  -0.1498  1.3090
N       1.5237  0.1354  -1.3425
N       1.3797  -0.1493  1.2354
C       -2.7711  0.4104  -0.6453
C       -2.7714  -0.4040  0.6247
C       2.8203  0.4251  -0.6650
C       2.7223  -0.3888  0.6053
H       -1.2572  0.8327  -1.9634
H       -2.8484  1.4672  -0.4475
H       -3.5724  0.1183  -1.3051
H       -3.5871  -0.1509  1.2831
H       -2.8204  -1.4566  0.4023
H       -1.5306  0.6844  1.8579
H       -1.2820  -0.9178  1.9340
H       1.5694  -0.7756  -1.7697
H       1.3556  0.8128  -2.0667
H       3.6607  0.1081  -1.2660
H       2.8976  1.4819  -0.4825
H       2.7716  -1.4416  0.3685
H       3.4987  -0.1599  1.3225
H       1.1837  -0.9366  1.8312
H       1.4322  0.6704  1.8134
H       -1.4712  -0.7626  -1.7259
