27

Co      -0.0741  0.0000  0.0000
Cl      0.0068  -2.2574  -0.2106
Cl      0.0064  2.2575  0.2107
N       -1.5193  0.1509  -1.3897
N       -1.5193  -0.1510  1.3896
N       1.5864  0.1612  -1.4343
N       1.5864  -0.1609  1.4343
C       -2.7649  0.4112  -0.6365
C       -2.7651  -0.4104  0.6365
C       2.8205  0.4131  -0.6359
C       2.8207  -0.4120  0.6360
H       -1.0985  0.9258  -1.9265
H       -2.8662  1.4571  -0.3982
H       -3.6224  0.1080  -1.2157
H       -3.6269  -0.1069  1.2114
H       -2.8669  -1.4564  0.3982
H       -1.3265  0.7513  1.8468
H       -1.0989  -0.9263  1.9260
H       1.4108  -0.7488  -1.8818
H       1.2199  0.9279  -1.9936
H       3.7006  0.1129  -1.1932
H       2.9181  1.4591  -0.3961
H       2.9189  -1.4580  0.3962
H       3.7005  -0.1113  1.1934
H       1.2200  -0.9280  1.9933
H       1.4103  0.7489  1.8821
H       -1.3222  -0.7516  -1.8465
