27

Co      0.0490  -0.0061  0.0389
Cl      -0.0063  -2.2765  -0.2105
Cl      -0.0067  2.2806  0.2065
N       -1.4607  0.1734  -1.2698
N       -1.3953  -0.1776  1.2329
N       1.4346  0.1729  -1.3253
N       1.3691  -0.1767  1.2885
C       -2.8317  0.3903  -0.6853
C       -2.7829  -0.3692  0.6485
C       2.7762  0.3837  -0.6952
C       2.7273  -0.3622  0.6585
H       -1.3467  0.8950  -1.9655
H       -2.9098  1.4644  -0.5739
H       -3.7046  0.0288  -1.2235
H       -3.6265  -0.0645  1.2486
H       -2.8327  -1.4391  0.5044
H       -1.5780  0.6265  1.8246
H       -1.3103  -0.9323  1.9037
H       1.6225  -0.6340  -1.9052
H       1.3076  0.9204  -1.9891
H       3.6719  0.0223  -1.2008
H       2.8407  1.4616  -0.5872
H       2.7639  -1.4360  0.5177
H       3.5982  -0.0575  1.2214
H       1.2710  -0.9572  1.9274
H       1.5566  0.6076  1.9056
H       -1.6482  -0.6554  -1.8243
