27

Co      0.0000  -0.0061  0.0389
Cl      0.0002  -2.2874  -0.2180
Cl      -0.0001  2.2916  0.2140
N       -1.4778  0.1425  -1.3817
N       -1.4124  -0.1467  1.3448
N       1.4778  0.1424  -1.3816
N       1.4123  -0.1462  1.3448
C       -2.8275  0.4407  -0.6835
C       -2.7787  -0.4196  0.6467
C       2.8276  0.4407  -0.6836
C       2.7787  -0.4192  0.6469
H       -1.2602  0.8645  -2.0371
H       -2.8506  1.4947  -0.4729
H       -3.6522  0.1919  -1.3335
H       -3.5786  -0.2277  1.3541
H       -2.7735  -1.4722  0.4034
H       -1.4662  0.7031  1.8723
H       -1.2238  -0.9018  1.9753
H       1.5319  -0.7303  -1.8716
H       1.2604  0.8642  -2.0374
H       3.6522  0.1916  -1.3336
H       2.8507  1.4975  -0.4735
H       2.7738  -1.4719  0.4040
H       3.5785  -0.2268  1.3542
H       1.2237  -0.9010  1.9757
H       1.4660  0.7038  1.8720
H       -1.5319  -0.7321  -1.8720
