27

Co      0.0250  0.0427  0.0422
Cl      0.0002  -2.2658  -0.2121
Cl      -0.0001  2.2026  0.2014
N       -1.3818  0.1997  -1.3604
N       -1.3949  -0.2140  1.4005
N       1.4194  0.1822  -1.3338
N       1.2753  -0.1961  1.2268
C       -2.7859  0.3833  -0.6940
C       -2.7861  -0.3768  0.6734
C       2.8351  0.4025  -0.7046
C       2.7370  -0.3662  0.6449
H       -1.3425  0.8570  -2.1336
H       -2.8022  1.4409  -0.4957
H       -3.6034  0.1363  -1.3540
H       -3.6181  -0.1689  1.3320
H       -2.7742  -1.4332  0.4505
H       -1.3209  0.6982  1.8432
H       -1.3673  -0.9420  2.1042
H       1.3042  -0.8121  -1.6306
H       1.3589  0.8014  -2.1498
H       3.6462  0.1388  -1.3604
H       2.8613  1.4668  -0.5133
H       2.7353  -1.4264  0.3994
H       3.4842  -0.1906  1.4169
H       1.1826  -0.9253  1.9143
H       1.1670  0.7069  1.6743
H       -1.2615  -0.7764  -1.7112
