27

Co      0.0000  0.0000  0.0000
Cl      0.0002  -2.3286  -0.2213
Cl      -0.0001  2.3287  0.2214
N       -1.3725  0.1836  -1.3102
N       -1.4511  -0.1838  1.3837
N       1.4511  0.1836  -1.3838
N       1.3725  -0.1833  1.3102
C       -2.7193  0.3676  -0.6481
C       -2.7686  -0.3816  0.6678
C       2.7684  0.3823  -0.6679
C       2.7195  -0.3664  0.6483
H       -1.4107  0.8357  -2.1255
H       -2.6316  1.4358  -0.4439
H       -3.6540  0.1883  -1.1805
H       -3.7378  -0.1774  1.1459
H       -2.6814  -1.4498  0.4782
H       -1.5387  0.7516  1.7665
H       -1.5093  -0.8166  2.2281
H       1.5434  -0.7522  -1.7657
H       1.5091  0.8158  -2.2244
H       3.7423  0.1826  -1.1413
H       2.6808  1.4506  -0.4789
H       2.6326  -1.4348  0.4445
H       3.6539  -0.1908  1.1808
H       1.4066  -0.8355  2.1210
H       1.4447  0.7376  1.7219
H       -1.4453  -0.7372  -1.7220
