27

Co      0.0250  -0.0061  0.0389
Cl      0.0002  -2.2321  -0.2088
Cl      -0.0001  2.2362  0.2048
N       -1.3818  0.2047  -1.3621
N       -1.3949  -0.2089  1.3988
N       1.4194  0.1872  -1.3355
N       1.2753  -0.1910  1.2251
C       -2.7859  0.3833  -0.6923
C       -2.7861  -0.3768  0.6751
C       2.8351  0.4025  -0.7030
C       2.7370  -0.3662  0.6466
H       -1.3240  0.8907  -2.0983
H       -2.8022  1.4409  -0.4907
H       -3.6034  0.1397  -1.3523
H       -3.6181  -0.1655  1.3336
H       -2.7742  -1.4332  0.4556
H       -1.3074  0.7302  1.7994
H       -1.3858  -0.9084  2.1396
H       1.3177  -0.7801  -1.6743
H       1.3404  0.8351  -2.1144
H       3.6462  0.1422  -1.3587
H       2.8613  1.4668  -0.5083
H       2.7353  -1.4264  0.4044
H       3.4842  -0.1872  1.4186
H       1.2011  -0.8916  1.9497
H       1.1535  0.7389  1.6305
H       -1.2749  -0.7444  -1.7549
