27

Co      0.0000  -0.0488  -0.0034
Cl      0.0002  -2.2238  -0.2072
Cl      -0.0001  2.2912  0.2140
N       -1.5663  0.1283  -1.3744
N       -1.5663  -0.1183  1.3709
N       1.5663  0.1282  -1.3743
N       1.5663  -0.1178  1.3710
C       -2.7521  0.4031  -0.6174
C       -2.7523  -0.4024  0.6208
C       2.7521  0.4031  -0.6175
C       2.7523  -0.4020  0.6210
H       -1.2571  1.0083  -1.8312
H       -2.9041  1.4607  -0.4483
H       -3.6024  0.0387  -1.1801
H       -3.6023  -0.0309  1.1836
H       -2.9048  -1.4571  0.4585
H       -1.7459  0.6467  2.0255
H       -1.2946  -0.9415  1.9015
H       1.7730  -0.5834  -2.1123
H       1.2573  1.0080  -1.8359
H       3.6023  0.0339  -1.1802
H       2.9042  1.4579  -0.4490
H       2.9050  -1.4568  0.4591
H       3.6023  -0.0256  1.1837
H       1.2989  -0.9408  1.9063
H       1.7456  0.6475  2.0251
H       -1.7730  -0.5831  -2.1127
