27

Co      0.0000  0.0427  0.0422
Cl      0.0002  -2.3211  -0.2213
Cl      -0.0001  2.2579  0.2106
N       -1.4597  0.1420  -1.3665
N       -1.3943  -0.1563  1.3329
N       1.4597  0.1419  -1.3664
N       1.3943  -0.1558  1.3330
C       -2.8320  0.4362  -0.7033
C       -2.7832  -0.4151  0.6631
C       2.8321  0.4362  -0.7034
C       2.7832  -0.4146  0.6633
H       -1.3329  0.8127  -2.1132
H       -2.7873  1.5037  -0.5367
H       -3.7426  0.1931  -1.2448
H       -3.6645  -0.2355  1.2665
H       -2.7102  -1.4813  0.4571
H       -1.6199  0.6350  1.9387
H       -1.2595  -0.9174  1.9807
H       1.6631  -0.7261  -1.8504
H       1.3331  0.8124  -2.1134
H       3.7426  0.1927  -1.2449
H       2.7874  1.5065  -0.5373
H       2.7105  -1.4809  0.4577
H       3.6689  -0.2347  1.2621
H       1.2594  -0.9166  1.9810
H       1.6241  0.6357  1.9383
H       -1.6632  -0.7279  -1.8508
