27

Co      -0.0490  0.0000  0.0000
Cl      0.0068  -2.2946  -0.2123
Cl      0.0064  2.2947  0.2124
N       -1.5606  0.1560  -1.3536
N       -1.5606  -0.1561  1.3535
N       1.5868  0.1527  -1.2979
N       1.5867  -0.1524  1.2979
C       -2.7672  0.3794  -0.6012
C       -2.7674  -0.3787  0.6012
C       2.8229  0.3859  -0.5916
C       2.8230  -0.3848  0.5916
H       -1.3365  0.9504  -1.9228
H       -2.9424  1.4233  -0.3775
H       -3.5381  0.0411  -1.2844
H       -3.5426  -0.0400  1.2801
H       -2.9431  -1.4198  0.3775
H       -1.4495  0.7147  1.8632
H       -1.3369  -0.9509  1.9223
H       1.4746  -0.7350  -1.7775
H       1.3759  0.9206  -1.9034
H       3.5708  0.0505  -1.3075
H       3.0079  1.4271  -0.3618
H       3.0088  -1.4260  0.3618
H       3.5707  -0.0490  1.3076
H       1.3761  -0.9207  1.9031
H       1.4741  0.7351  1.7778
H       -1.4452  -0.7151  -1.8629
