27

Co      -0.0741  -0.0427  -0.0422
Cl      0.0068  -2.2688  -0.2180
Cl      0.0064  2.3321  0.2289
N       -1.5046  0.1196  -1.4114
N       -1.4915  -0.1055  1.3711
N       1.4932  0.1336  -1.3823
N       1.6371  -0.1192  1.4894
C       -2.7255  0.4297  -0.5978
C       -2.7257  -0.4347  0.6183
C       2.7321  0.4169  -0.5776
C       2.8304  -0.4510  0.6375
H       -1.2391  0.9012  -1.9866
H       -2.7563  1.4650  -0.2907
H       -3.5194  0.2519  -1.3133
H       -3.5092  -0.2170  1.3311
H       -2.7855  -1.4741  0.3360
H       -1.3841  0.8275  1.7757
H       -1.2152  -0.8172  2.0151
H       1.4262  -0.7344  -1.9019
H       1.2623  0.9267  -1.9469
H       3.5092  0.2628  -1.3301
H       2.7628  1.4486  -0.2580
H       2.8904  -1.4867  0.3720
H       3.6712  -0.2079  1.2739
H       1.4345  -0.8030  2.1817
H       1.5623  0.8398  1.8590
H       -1.4395  -0.7500  -1.9071
