27

Co      -0.0490  -0.0488  -0.0034
Cl      0.0068  -2.2203  -0.2147
Cl      0.0064  2.2877  0.2215
N       -1.5651  0.1308  -1.3634
N       -1.5651  -0.1208  1.3600
N       1.5913  0.1312  -1.3078
N       1.5913  -0.1208  1.3044
C       -2.7293  0.4122  -0.5905
C       -2.7296  -0.4114  0.5939
C       2.7850  0.4187  -0.5808
C       2.7851  -0.4176  0.5843
H       -1.1636  0.8963  -1.9218
H       -2.8143  1.4572  -0.3230
H       -3.6283  0.1313  -1.1228
H       -3.6327  -0.1235  1.1218
H       -2.8150  -1.4537  0.3332
H       -1.3894  0.8340  1.7319
H       -1.2010  -0.8295  1.9920
H       1.4378  -0.7903  -1.7374
H       1.2030  0.8703  -1.8987
H       3.6609  0.1370  -1.1459
H       2.8836  1.4572  -0.3111
H       2.8844  -1.4561  0.3212
H       3.6609  -0.1287  1.1494
H       1.2402  -0.8031  1.9690
H       1.4103  0.8543  1.6503
H       -1.4121  -0.7704  -1.8191
