27

Co      0.0000  -0.0488  -0.0034
Cl      0.0002  -2.2166  -0.2072
Cl      -0.0001  2.2840  0.2140
N       -1.5595  0.1591  -1.3394
N       -1.5595  -0.1492  1.3359
N       1.5595  0.1591  -1.3393
N       1.5595  -0.1487  1.3360
C       -2.7609  0.3892  -0.6044
C       -2.7611  -0.3885  0.6077
C       2.7609  0.3892  -0.6045
C       2.7611  -0.3881  0.6079
H       -1.1682  0.9528  -1.8670
H       -2.9145  1.4380  -0.3786
H       -3.6259  0.0388  -1.1530
H       -3.6304  -0.0310  1.1520
H       -2.9151  -1.4345  0.3887
H       -1.3592  0.7876  1.7418
H       -1.2057  -0.8860  1.9373
H       1.3818  -0.7243  -1.8286
H       1.1684  0.9525  -1.8673
H       3.6258  0.0384  -1.1532
H       2.9146  1.4352  -0.3792
H       2.9154  -1.4341  0.3893
H       3.6258  -0.0301  1.1567
H       1.2056  -0.8852  1.9376
H       1.3544  0.7883  1.7415
H       -1.3819  -0.7240  -1.8290
