27

Co      0.0000  0.0427  0.0422
Cl      0.0002  -2.2695  -0.2196
Cl      -0.0001  2.2063  0.2089
N       -1.4213  0.1304  -1.2808
N       -1.4344  -0.1447  1.3209
N       1.4998  0.1303  -1.3544
N       1.3558  -0.1442  1.2473
C       -2.7370  0.4121  -0.6453
C       -2.7372  -0.4057  0.6247
C       2.7862  0.4268  -0.6650
C       2.6881  -0.3905  0.6053
H       -1.2333  0.8259  -1.9770
H       -2.8023  1.4689  -0.4424
H       -3.5468  0.1320  -1.2949
H       -3.5615  -0.1646  1.2728
H       -2.7743  -1.4583  0.3971
H       -1.5119  0.6912  1.8665
H       -1.2581  -0.9110  1.9476
H       1.5506  -0.7824  -1.7782
H       1.3317  0.8060  -2.0804
H       3.6351  0.1218  -1.2557
H       2.8515  1.4836  -0.4774
H       2.7255  -1.4433  0.3634
H       3.4731  -0.1735  1.3122
H       1.1598  -0.9298  1.8449
H       1.4134  0.6772  1.8219
H       -1.4524  -0.7695  -1.7344
