27

Co      0.0490  0.0427  0.0422
Cl      -0.0063  -2.3139  -0.2213
Cl      -0.0067  2.2507  0.2106
N       -1.4402  0.1384  -1.2275
N       -1.4533  -0.1527  1.2676
N       1.4926  0.1416  -1.3567
N       1.3485  -0.1555  1.2496
C       -2.8035  0.4092  -0.6584
C       -2.8037  -0.4027  0.6379
C       2.7970  0.4173  -0.6880
C       2.6990  -0.3810  0.6283
H       -1.3311  0.7999  -1.9943
H       -2.8178  1.4795  -0.4981
H       -3.6792  0.1277  -1.2261
H       -3.6894  -0.1604  1.2086
H       -2.7898  -1.4690  0.4529
H       -1.6855  0.6580  1.8380
H       -1.3559  -0.8850  1.9648
H       1.6994  -0.7296  -1.8348
H       1.3902  0.8094  -2.1172
H       3.7348  0.1077  -1.1641
H       2.8016  1.4877  -0.5495
H       2.6756  -1.4473  0.4355
H       3.5728  -0.1595  1.2206
H       1.2183  -0.9333  1.8817
H       1.5622  0.6244  1.8785
H       -1.6306  -0.7363  -1.7060
