27

Co      0.0000  0.0488  0.0034
Cl      0.0002  -2.3231  -0.2193
Cl      -0.0001  2.2558  0.2126
N       -1.4320  0.1748  -1.3705
N       -1.4320  -0.1850  1.3737
N       1.4320  0.1747  -1.3704
N       1.4320  -0.1846  1.3738
C       -2.8115  0.4048  -0.6669
C       -2.8117  -0.4041  0.6635
C       2.8116  0.4048  -0.6670
C       2.8117  -0.4037  0.6637
H       -1.3998  0.8044  -2.1832
H       -2.7566  1.4567  -0.4175
H       -3.6539  0.2406  -1.3325
H       -3.6538  -0.2462  1.3293
H       -2.7572  -1.4588  0.4075
H       -1.3650  0.7515  1.7704
H       -1.3632  -0.8723  2.1121
H       1.3383  -0.8161  -1.6822
H       1.4000  0.8041  -2.1791
H       3.6538  0.2446  -1.3327
H       2.7567  1.4595  -0.4182
H       2.7575  -1.4584  0.4081
H       3.6538  -0.2498  1.3295
H       1.3587  -0.8715  2.1080
H       1.3647  0.7522  1.7701
H       -1.3383  -0.8158  -1.6826
