27

Co      0.0250  0.0488  0.0034
Cl      0.0002  -2.2787  -0.2176
Cl      -0.0001  2.2115  0.2109
N       -1.4698  0.1440  -1.4067
N       -1.4698  -0.1543  1.4100
N       1.4289  0.1303  -1.3065
N       1.4288  -0.1401  1.3099
C       -2.7322  0.4046  -0.6460
C       -2.7325  -0.4039  0.6426
C       2.7323  0.4091  -0.6370
C       2.7324  -0.4080  0.6337
H       -1.3337  0.8696  -2.0818
H       -2.7644  1.4593  -0.4364
H       -3.5985  0.1480  -1.2364
H       -3.5984  -0.1536  1.2331
H       -2.7651  -1.4586  0.4263
H       -1.5514  0.6724  1.9776
H       -1.2971  -0.9374  2.0107
H       1.4655  -0.7598  -1.7687
H       1.2519  0.8374  -1.9956
H       3.5529  0.1521  -1.2820
H       2.7782  1.4639  -0.4234
H       2.7790  -1.4628  0.4133
H       3.5529  -0.1573  1.2788
H       1.2150  -0.9048  1.9245
H       1.4919  0.6959  1.8566
H       -1.5247  -0.7368  -1.8898
