27

Co      0.0000  -0.0488  -0.0034
Cl      0.0002  -2.2238  -0.2072
Cl      -0.0001  2.2912  0.2140
N       -1.5871  0.1303  -1.4281
N       -1.5086  -0.1203  1.3510
N       1.5086  0.1303  -1.3544
N       1.5871  -0.1199  1.4247
C       -2.8132  0.4407  -0.6623
C       -2.7644  -0.4253  0.6460
C       2.7642  0.4259  -0.6428
C       2.8134  -0.4396  0.6659
H       -1.1044  0.9775  -1.8754
H       -2.9085  1.5003  -0.4934
H       -3.7576  0.0800  -1.1055
H       -3.6692  -0.0820  1.1483
H       -2.8600  -1.4848  0.4691
H       -1.5959  0.6721  1.9682
H       -1.0437  -0.9304  1.8426
H       1.6230  -0.6087  -2.0550
H       1.0064  0.9969  -1.7770
H       3.6692  0.0850  -1.1449
H       2.8595  1.4855  -0.4596
H       2.9094  -1.4992  0.5041
H       3.7575  -0.0669  1.1092
H       1.1462  -0.9100  1.9505
H       1.6938  0.6875  2.0120
H       -1.7212  -0.6232  -2.0996
