27

Co      -0.0490  0.0061  -0.0389
Cl      0.0068  -2.3468  -0.2231
Cl      0.0064  2.3428  0.2273
N       -1.5562  0.1298  -1.3942
N       -1.6216  -0.1258  1.4309
N       1.5824  0.1302  -1.3385
N       1.6478  -0.1258  1.3753
C       -2.6856  0.4324  -0.5829
C       -2.7349  -0.4521  0.6197
C       2.7412  0.4389  -0.5732
C       2.7904  -0.4582  0.6101
H       -1.0978  0.8801  -1.9502
H       -2.8615  1.4754  -0.3403
H       -3.5503  0.0694  -1.1324
H       -3.6285  -0.0315  1.1076
H       -2.9398  -1.4964  0.4099
H       -1.5757  0.7875  1.8597
H       -1.1351  -0.8438  2.0111
H       1.5317  -0.7812  -1.7777
H       1.1372  0.8541  -1.9271
H       3.5830  0.0750  -1.1554
H       2.9307  1.4754  -0.3284
H       3.0092  -1.4988  0.3979
H       3.6566  -0.0367  1.1351
H       1.1742  -0.8173  1.9881
H       1.5966  0.8079  1.7781
H       -1.5060  -0.7593  -1.8594
