27

Co      0.0000  0.0000  0.0000
Cl      0.0002  -2.2574  -0.2106
Cl      -0.0001  2.2575  0.2107
N       -1.5663  0.1232  -1.3727
N       -1.5663  -0.1234  1.3726
N       1.5663  0.1232  -1.3727
N       1.5663  -0.1229  1.3727
C       -2.7521  0.4031  -0.6191
C       -2.7523  -0.4024  0.6191
C       2.7521  0.4031  -0.6192
C       2.7523  -0.4020  0.6193
H       -1.2756  0.9747  -1.8666
H       -2.9041  1.4607  -0.4534
H       -3.6024  0.0354  -1.1818
H       -3.6023  -0.0343  1.1819
H       -2.9048  -1.4571  0.4534
H       -1.7593  0.6148  2.0692
H       -1.2761  -0.9752  1.8661
H       1.7596  -0.6154  -2.0685
H       1.2758  0.9744  -1.8712
H       3.6023  0.0305  -1.1819
H       2.9042  1.4579  -0.4540
H       2.9050  -1.4568  0.4541
H       3.6023  -0.0290  1.1820
H       1.2804  -0.9744  1.8709
H       1.7590  0.6155  2.0689
H       -1.7596  -0.6151  -2.0689
