27

Co      0.0000  0.0488  0.0034
Cl      0.0002  -2.3107  -0.2229
Cl      -0.0001  2.2435  0.2163
N       -1.4217  0.1684  -1.3020
N       -1.4217  -0.1786  1.3053
N       1.4217  0.1684  -1.3019
N       1.4217  -0.1782  1.3053
C       -2.6741  0.4181  -0.6869
C       -2.6743  -0.4174  0.6835
C       2.6741  0.4181  -0.6870
C       2.6743  -0.4170  0.6837
H       -1.2879  0.7685  -2.1189
H       -2.7209  1.4785  -0.4821
H       -3.4815  0.1710  -1.3550
H       -3.4815  -0.1767  1.3517
H       -2.7215  -1.4778  0.4720
H       -1.4345  0.7509  1.7024
H       -1.2513  -0.8364  2.0477
H       1.4078  -0.8155  -1.6142
H       1.2881  0.7682  -2.1147
H       3.4815  0.1751  -1.3580
H       2.7181  1.4786  -0.4827
H       2.7189  -1.4775  0.4726
H       3.4814  -0.1802  1.3547
H       1.2468  -0.8356  2.0436
H       1.4342  0.7516  1.7021
H       -1.4078  -0.8152  -1.6146
