27

Co      0.0000  0.0488  0.0034
Cl      0.0002  -2.3514  -0.2171
Cl      -0.0001  2.2841  0.2105
N       -1.3663  0.1680  -1.2828
N       -1.3663  -0.1782  1.2861
N       1.3663  0.1641  -1.2828
N       1.3662  -0.1739  1.2861
C       -2.7568  0.3374  -0.6595
C       -2.7570  -0.3367  0.6561
C       2.7568  0.3374  -0.6596
C       2.7570  -0.3363  0.6563
H       -1.5270  0.9204  -2.0182
H       -2.7106  1.4046  -0.4923
H       -3.5786  0.1419  -1.3341
H       -3.5741  -0.1476  1.3354
H       -2.7113  -1.4038  0.4823
H       -1.5266  0.5930  1.9408
H       -1.4904  -0.9883  1.9471
H       1.5082  -0.6576  -1.8488
H       1.5272  0.9163  -2.0222
H       3.5786  0.1453  -1.3342
H       2.7070  1.4083  -0.4892
H       2.7078  -1.4072  0.4792
H       3.5785  -0.1505  1.3310
H       1.4903  -0.9837  1.9512
H       1.5346  0.5938  1.9367
H       -1.5045  -0.6574  -1.8530
