27

Co      -0.0490  0.0000  0.0000
Cl      0.0068  -2.3338  -0.2176
Cl      0.0064  2.3339  0.2177
N       -1.5064  0.1179  -1.3479
N       -1.5064  -0.1180  1.3478
N       1.5326  0.1146  -1.2923
N       1.5325  -0.1143  1.2923
C       -2.7505  0.4054  -0.5832
C       -2.7507  -0.4047  0.5831
C       2.8061  0.4119  -0.5735
C       2.8063  -0.4108  0.5736
H       -1.0708  0.9563  -1.8203
H       -2.9456  1.4621  -0.4338
H       -3.6779  -0.0670  -1.0037
H       -3.6779  0.0681  1.0039
H       -2.9462  -1.4585  0.4338
H       -1.6426  0.6478  2.0085
H       -1.0712  -0.9568  1.8198
H       1.6723  -0.6680  -1.9228
H       1.1102  0.9266  -1.8054
H       3.7106  -0.0620  -1.0239
H       3.0139  1.4658  -0.4180
H       3.0148  -1.4647  0.4181
H       3.7105  0.0635  1.0240
H       1.1148  -0.9266  1.8050
H       1.6718  0.6681  1.9232
H       -1.6429  -0.6482  -2.0082
