27

Co      0.0000  0.0000  0.0000
Cl      0.0002  -2.2946  -0.2123
Cl      -0.0001  2.2947  0.2124
N       -1.5371  0.1609  -1.3291
N       -1.5371  -0.1610  1.3290
N       1.5372  0.1608  -1.3290
N       1.5371  -0.1606  1.3291
C       -2.8361  0.4083  -0.6495
C       -2.8364  -0.4076  0.6494
C       2.8362  0.4083  -0.6496
C       2.8364  -0.4072  0.6497
H       -1.2086  0.8966  -1.9463
H       -2.8916  1.4679  -0.4560
H       -3.7560  0.0967  -1.1506
H       -3.7560  -0.0956  1.1507
H       -2.8923  -1.4671  0.4560
H       -1.5034  0.7211  1.8081
H       -1.2090  -0.8971  1.9459
H       1.5037  -0.7217  -1.8074
H       1.2088  0.8963  -1.9466
H       3.7560  0.0963  -1.1507
H       2.8917  1.4679  -0.4566
H       2.8926  -1.4668  0.4566
H       3.7559  -0.0947  1.1508
H       1.2089  -0.8964  1.9462
H       1.5032  0.7218  1.8078
H       -1.5037  -0.7214  -1.8078
