27

Co      0.0000  -0.0061  0.0389
Cl      0.0002  -2.2822  -0.2216
Cl      -0.0001  2.2864  0.2176
N       -1.3994  0.1720  -1.3541
N       -1.4126  -0.1762  1.3909
N       1.4780  0.1719  -1.4277
N       1.3340  -0.1757  1.3173
C       -2.7051  0.3840  -0.6485
C       -2.7054  -0.3776  0.6313
C       2.7543  0.3987  -0.6682
C       2.6563  -0.3624  0.6119
H       -1.3510  0.8286  -2.1291
H       -2.6877  1.4408  -0.4147
H       -3.5747  0.1791  -1.2504
H       -3.5895  -0.2050  1.2318
H       -2.6597  -1.4302  0.3796
H       -1.3470  0.7803  1.7524
H       -1.4128  -0.8463  2.1704
H       1.4127  -0.8075  -1.7517
H       1.4493  0.8086  -2.2280
H       3.6631  0.1733  -1.2113
H       2.7369  1.4555  -0.4497
H       2.6109  -1.4151  0.3459
H       3.5010  -0.2183  1.2712
H       1.3101  -0.8652  2.0633
H       1.2485  0.7663  1.7079
H       -1.3145  -0.7945  -1.7079
