27

Co      0.0741  0.0427  0.0422
Cl      -0.0063  -2.3493  -0.2192
Cl      -0.0067  2.2862  0.2084
N       -1.3971  0.1953  -1.3260
N       -1.4102  -0.2096  1.3661
N       1.4086  0.1811  -1.3550
N       1.2645  -0.1950  1.2479
C       -2.7992  0.4194  -0.6934
C       -2.7995  -0.4130  0.6729
C       2.7928  0.4321  -0.7139
C       2.6948  -0.3958  0.6541
H       -1.2675  0.8222  -2.1069
H       -2.9376  1.4771  -0.5298
H       -3.5571  0.0594  -1.3894
H       -3.5718  -0.0920  1.3674
H       -2.9096  -1.4693  0.4846
H       -1.4494  0.6935  1.8130
H       -1.2923  -0.9072  2.0775
H       1.4033  -0.7878  -1.6854
H       1.2447  0.7960  -2.1426
H       3.5672  0.0521  -1.3729
H       2.9313  1.4964  -0.5637
H       2.8053  -1.4560  0.4498
H       3.4052  -0.1039  1.4294
H       1.0684  -0.9199  1.9072
H       1.2661  0.6827  1.7291
H       -1.3900  -0.7718  -1.6810
