27

Co      0.0250  -0.0061  0.0389
Cl      0.0002  -2.2765  -0.2105
Cl      -0.0001  2.2806  0.2065
N       -1.4057  0.2098  -1.3501
N       -1.4188  -0.2141  1.3869
N       1.4433  0.1924  -1.3236
N       1.2992  -0.1962  1.2131
C       -2.8200  0.3815  -0.6923
C       -2.8203  -0.3751  0.6751
C       2.8692  0.4008  -0.7030
C       2.7712  -0.3645  0.6466
H       -1.3479  0.8975  -2.0846
H       -2.8483  1.4392  -0.4958
H       -3.6290  0.1260  -1.3626
H       -3.6437  -0.1519  1.3439
H       -2.8203  -1.4315  0.4607
H       -1.3262  0.7233  1.7909
H       -1.4097  -0.9152  2.1259
H       1.3364  -0.7733  -1.6658
H       1.3643  0.8419  -2.1008
H       3.6718  0.1285  -1.3690
H       2.9074  1.4651  -0.5134
H       2.7814  -1.4247  0.4096
H       3.5098  -0.1736  1.4288
H       1.2250  -0.8984  1.9360
H       1.1723  0.7321  1.6220
H       -1.2937  -0.7376  -1.7464
