27

Co      0.0490  0.0427  0.0422
Cl      -0.0063  -2.3211  -0.2213
Cl      -0.0067  2.2579  0.2106
N       -1.4516  0.1358  -1.3154
N       -1.4647  -0.1501  1.3555
N       1.5040  0.1390  -1.4446
N       1.3600  -0.1529  1.3375
C       -2.8308  0.4366  -0.6705
C       -2.8310  -0.4302  0.6499
C       2.8243  0.4448  -0.7000
C       2.7263  -0.4085  0.6403
H       -1.2492  0.8259  -2.0111
H       -2.8587  1.4906  -0.4526
H       -3.6244  0.1984  -1.3663
H       -3.6391  -0.2310  1.3442
H       -2.8307  -1.4829  0.4073
H       -1.5435  0.6883  1.8956
H       -1.2740  -0.9109  1.9817
H       1.5528  -0.7599  -1.8924
H       1.3083  0.8354  -2.1341
H       3.6800  0.1784  -1.3042
H       2.8425  1.5016  -0.5039
H       2.7166  -1.4612  0.3900
H       3.5180  -0.2302  1.3607
H       1.1365  -0.9592  1.8986
H       1.4156  0.6547  1.9361
H       -1.4841  -0.7665  -1.7636
