27

Co      0.0000  0.0000  0.0000
Cl      0.0002  -2.2946  -0.2123
Cl      -0.0001  2.2947  0.2124
N       -1.5586  0.1162  -1.3338
N       -1.5586  -0.1164  1.3337
N       1.5586  0.1162  -1.3337
N       1.5586  -0.1159  1.3338
C       -2.8231  0.4337  -0.6216
C       -2.8233  -0.4330  0.6216
C       2.8231  0.4337  -0.6217
C       2.8233  -0.4326  0.6218
H       -1.1603  0.9692  -1.7885
H       -3.0246  1.4748  -0.4034
H       -3.5301  0.0828  -1.3848
H       -3.5346  -0.0817  1.3804
H       -3.0253  -1.4741  0.4034
H       -1.5835  0.6669  1.9748
H       -1.1607  -0.9697  1.7880
H       1.5792  -0.6675  -1.9741
H       1.1604  0.9689  -1.7931
H       3.5301  0.0780  -1.3849
H       3.0247  1.4749  -0.4040
H       3.0256  -1.4738  0.4041
H       3.5300  -0.0764  1.3851
H       1.1650  -0.9689  1.7928
H       1.5787  0.6676  1.9744
H       -1.5792  -0.6673  -1.9745
