27

Co      -0.0250  0.0061  -0.0389
Cl      0.0002  -2.2632  -0.2160
Cl      -0.0001  2.2592  0.2202
N       -1.5184  0.1213  -1.3398
N       -1.5838  -0.1173  1.3765
N       1.5594  0.1386  -1.4399
N       1.6248  -0.1343  1.4767
C       -2.7644  0.4304  -0.5945
C       -2.8137  -0.4502  0.6313
C       2.7645  0.4258  -0.6037
C       2.8137  -0.4452  0.6406
H       -1.1147  0.8583  -1.9310
H       -2.7926  1.4706  -0.2916
H       -3.6206  0.2287  -1.2187
H       -3.6987  -0.1908  1.1939
H       -2.8710  -1.4944  0.3611
H       -1.4189  0.8316  1.7519
H       -1.1520  -0.8220  1.9919
H       1.4046  -0.7829  -1.8756
H       1.1969  0.8936  -2.0140
H       3.6661  0.2200  -1.1733
H       2.7828  1.4623  -0.3096
H       2.8614  -1.4858  0.3791
H       3.7397  -0.1816  1.1530
H       1.2338  -0.8569  2.0750
H       1.4695  0.8096  1.8759
H       -1.3492  -0.8033  -1.7516
