27

Co      0.0000  0.0488  0.0034
Cl      0.0002  -2.3159  -0.2193
Cl      -0.0001  2.2487  0.2126
N       -1.4420  0.1327  -1.2873
N       -1.4420  -0.1429  1.2906
N       1.4420  0.1326  -1.2872
N       1.4420  -0.1424  1.2906
C       -2.7712  0.4027  -0.6270
C       -2.7714  -0.4020  0.6236
C       2.7712  0.4027  -0.6271
C       2.7714  -0.4016  0.6238
H       -1.4334  0.8510  -2.0085
H       -2.8486  1.4526  -0.4105
H       -3.4828  0.1560  -1.4266
H       -3.4828  -0.1617  1.4234
H       -2.8493  -1.4518  0.4004
H       -1.5870  0.6671  1.8795
H       -1.3968  -0.9189  1.9373
H       1.5603  -0.7317  -1.7912
H       1.4336  0.8507  -2.0087
H       3.4828  0.1557  -1.4268
H       2.8487  1.4526  -0.4112
H       2.8496  -1.4515  0.4011
H       3.4827  -0.1608  1.4235
H       1.3967  -0.9181  1.9377
H       1.5867  0.6678  1.8791
H       -1.5603  -0.7314  -1.7916
