27

Co      0.0000  0.0000  0.0000
Cl      0.0002  -2.2451  -0.2142
Cl      -0.0001  2.2451  0.2143
N       -1.3688  0.1747  -1.3473
N       -1.4474  -0.1749  1.4208
N       1.4474  0.1747  -1.4208
N       1.3688  -0.1744  1.3472
C       -2.7528  0.3991  -0.6554
C       -2.8021  -0.4132  0.6750
C       2.8020  0.4138  -0.6752
C       2.7530  -0.3980  0.6556
H       -1.3083  0.8411  -2.1100
H       -2.6859  1.4510  -0.3902
H       -3.5841  0.2625  -1.3403
H       -3.6724  -0.2516  1.3011
H       -2.7357  -1.4679  0.4246
H       -1.3818  0.7977  1.7573
H       -1.4069  -0.8220  2.2126
H       1.3821  -0.7983  -1.7566
H       1.4067  0.8211  -2.2089
H       3.6724  0.2568  -1.3011
H       2.7351  1.4686  -0.4252
H       2.6869  -1.4528  0.3909
H       3.5840  -0.2650  1.3405
H       1.3042  -0.8408  2.1055
H       1.2834  0.7837  1.7128
H       -1.2839  -0.7833  -1.7128
