27

Co      -0.0490  -0.0427  -0.0422
Cl      0.0068  -2.2186  -0.2052
Cl      0.0064  2.2819  0.2161
N       -1.5014  0.1287  -1.3801
N       -1.4883  -0.1146  1.3398
N       1.4491  0.1253  -1.2508
N       1.5930  -0.1109  1.3579
C       -2.7786  0.3902  -0.6300
C       -2.7789  -0.3952  0.6505
C       2.7852  0.3820  -0.6007
C       2.8835  -0.4160  0.6605
H       -1.2696  1.0228  -1.8468
H       -2.7688  1.4428  -0.4037
H       -3.6421  0.1864  -1.2443
H       -3.6273  -0.1516  1.2666
H       -2.7981  -1.4519  0.4490
H       -1.5350  0.6796  1.9653
H       -1.2457  -0.9389  1.8753
H       1.5261  -0.6093  -1.9671
H       1.2108  1.0127  -1.7287
H       3.5864  0.2012  -1.3066
H       2.7852  1.4347  -0.3536
H       2.9129  -1.4728  0.4676
H       3.7483  -0.1463  1.2504
H       1.3874  -0.8890  1.9635
H       1.6623  0.7147  1.9241
H       -1.5949  -0.6021  -2.0967
