27

Co      0.0000  0.0000  0.0000
Cl      0.0002  -2.2451  -0.2142
Cl      -0.0001  2.2451  0.2143
N       -1.3697  0.1830  -1.3223
N       -1.4482  -0.1831  1.3958
N       1.4482  0.1829  -1.3958
N       1.3696  -0.1826  1.3222
C       -2.7345  0.3898  -0.7096
C       -2.7838  -0.4038  0.7292
C       2.7836  0.4045  -0.7293
C       2.7347  -0.3886  0.7098
H       -1.5109  0.8384  -2.1578
H       -2.5685  1.4561  -0.4753
H       -3.5546  0.3514  -1.4494
H       -3.6385  -0.3405  1.4148
H       -2.6183  -1.4729  0.5097
H       -1.5862  0.7316  1.8064
H       -1.6095  -0.8193  2.2604
H       1.5909  -0.7322  -1.8057
H       1.6093  0.8185  -2.2567
H       3.6430  0.3456  -1.4131
H       2.6149  1.4737  -0.5103
H       2.5666  -1.4578  0.4760
H       3.5546  -0.3538  1.4526
H       1.5068  -0.8382  2.1533
H       1.4922  0.7175  1.7619
H       -1.4928  -0.7172  -1.7619
