27

Co      0.0000  0.0488  0.0034
Cl      0.0002  -2.2716  -0.2176
Cl      -0.0001  2.2043  0.2109
N       -1.3574  0.1723  -1.2577
N       -1.4359  -0.1825  1.3346
N       1.4360  0.1722  -1.3313
N       1.3574  -0.1820  1.2610
C       -2.7255  0.3717  -0.6450
C       -2.7748  -0.3857  0.6613
C       2.7747  0.3864  -0.6648
C       2.7257  -0.3705  0.6419
H       -1.4087  0.7814  -2.1285
H       -2.6450  1.4399  -0.4408
H       -3.6389  0.1885  -1.2018
H       -3.7227  -0.1843  1.1638
H       -2.6948  -1.4539  0.4651
H       -1.5373  0.7354  1.7434
H       -1.4703  -0.8297  2.1604
H       1.5151  -0.8000  -1.6552
H       1.5071  0.7615  -2.2274
H       3.7272  0.1827  -1.1627
H       2.6942  1.4547  -0.4758
H       2.6460  -1.4389  0.4314
H       3.6388  -0.1977  1.1987
H       1.3676  -0.8485  2.0533
H       1.4434  0.7214  1.6989
H       -1.4170  -0.7850  -1.6114
