27

Co      0.0000  0.0488  0.0034
Cl      0.0002  -2.3107  -0.2229
Cl      -0.0001  2.2435  0.2163
N       -1.3382  0.1659  -1.3168
N       -1.3382  -0.1761  1.3200
N       1.3382  0.1658  -1.3167
N       1.3382  -0.1756  1.3201
C       -2.7511  0.4044  -0.6802
C       -2.7513  -0.4037  0.6768
C       2.7511  0.4043  -0.6803
C       2.7513  -0.4032  0.6770
H       -1.3694  0.7550  -2.2023
H       -2.6212  1.4698  -0.4646
H       -3.6651  0.2593  -1.2546
H       -3.6605  -0.2650  1.2559
H       -2.6218  -1.4719  0.4546
H       -1.4298  0.7419  1.7333
H       -1.3328  -0.8229  2.1311
H       1.4076  -0.8065  -1.6451
H       1.3696  0.7547  -2.1981
H       3.6651  0.2634  -1.2548
H       2.6213  1.4727  -0.4653
H       2.6221  -1.4716  0.4552
H       3.6650  -0.2685  1.2516
H       1.3283  -0.8221  2.1270
H       1.4340  0.7426  1.7330
H       -1.4076  -0.8062  -1.6455
