27

Co      -0.0490  -0.0488  -0.0034
Cl      0.0068  -2.2558  -0.2125
Cl      0.0064  2.3232  0.2194
N       -1.5010  0.1191  -1.3806
N       -1.5010  -0.1091  1.3771
N       1.5272  0.1157  -1.3249
N       1.5272  -0.1054  1.3216
C       -2.7255  0.4370  -0.6345
C       -2.7258  -0.4363  0.6378
C       2.7812  0.4435  -0.6248
C       2.7813  -0.4424  0.6283
H       -0.9207  0.9957  -1.7577
H       -2.8885  1.4830  -0.4190
H       -3.5531  0.0760  -1.2269
H       -3.5576  -0.0682  1.2259
H       -2.8892  -1.4823  0.4291
H       -1.4335  0.7255  1.9420
H       -0.9581  -0.9289  1.8279
H       1.4855  -0.6818  -1.9438
H       0.9601  0.9660  -1.7427
H       3.5857  0.0810  -1.2499
H       2.9540  1.4895  -0.4033
H       2.9549  -1.4884  0.4134
H       3.5857  -0.0727  1.2535
H       1.0017  -0.8987  1.8131
H       1.4581  0.7458  1.8566
H       -1.4561  -0.6619  -2.0292
