27

Co      0.0490  0.0000  0.0000
Cl      -0.0063  -2.2823  -0.2159
Cl      -0.0067  2.2823  0.2160
N       -1.4497  0.1805  -1.2218
N       -1.5282  -0.1806  1.2953
N       1.5021  0.1837  -1.3509
N       1.4235  -0.1834  1.2773
C       -2.7471  0.4123  -0.6704
C       -2.7964  -0.4263  0.6901
C       2.7407  0.4205  -0.7000
C       2.6917  -0.4046  0.6805
H       -1.2959  0.8094  -2.0032
H       -2.8178  1.4727  -0.4586
H       -3.5114  0.1652  -1.3982
H       -3.5997  -0.1543  1.3590
H       -2.8676  -1.4867  0.4929
H       -1.5339  0.7879  1.6261
H       -1.3945  -0.7903  2.1058
H       1.5047  -0.7689  -1.7104
H       1.3550  0.8189  -2.1217
H       3.5670  0.1496  -1.3390
H       2.7988  1.4810  -0.5099
H       2.7505  -1.4651  0.4756
H       3.4786  -0.1579  1.3784
H       1.2526  -0.8386  2.0183
H       1.4060  0.7543  1.6666
H       -1.4360  -0.7735  -1.5816
