27

Co      -0.0250  0.0061  -0.0389
Cl      0.0002  -2.2915  -0.2139
Cl      -0.0001  2.2875  0.2181
N       -1.4720  0.1015  -1.3004
N       -1.4588  -0.0976  1.2635
N       1.4344  0.1151  -1.3269
N       1.5783  -0.1107  1.4373
C       -2.7441  0.4050  -0.5554
C       -2.7443  -0.4100  0.5726
C       2.6951  0.3856  -0.5450
C       2.7934  -0.4197  0.6015
H       -1.2017  0.9371  -1.8260
H       -2.9393  1.4547  -0.3767
H       -3.5563  -0.0084  -1.1492
H       -3.5415  0.0365  1.1682
H       -2.9685  -1.4610  0.4118
H       -1.6653  0.6585  1.9346
H       -1.1408  -0.9205  1.7838
H       1.6593  -0.6098  -2.0546
H       1.1857  0.9883  -1.8141
H       3.5134  -0.0079  -1.1402
H       2.8795  1.4326  -0.3566
H       3.0071  -1.4708  0.4605
H       3.6753  0.0561  1.0807
H       1.3253  -0.9319  1.9782
H       1.8224  0.6512  2.0991
H       -1.6983  -0.6450  -1.9785
