27

Co      0.0490  0.0000  0.0000
Cl      -0.0063  -2.2413  -0.2067
Cl      -0.0067  2.2414  0.2068
N       -1.4340  0.1658  -1.3343
N       -1.4340  -0.1659  1.3342
N       1.4079  0.1652  -1.3898
N       1.4078  -0.1649  1.3898
C       -2.7638  0.3791  -0.6439
C       -2.7640  -0.3784  0.6439
C       2.7083  0.3725  -0.6538
C       2.7084  -0.3714  0.6539
H       -1.4243  0.9535  -1.9727
H       -2.8859  1.4327  -0.4607
H       -3.4763  0.0853  -1.4186
H       -3.4763  -0.0842  1.4187
H       -2.8866  -1.4319  0.4607
H       -1.5508  0.6452  1.9260
H       -1.4247  -0.9540  1.9722
H       1.5254  -0.6262  -2.0065
H       1.3853  0.9789  -1.9963
H       3.4436  0.0789  -1.3958
H       2.8169  1.4299  -0.4739
H       2.8177  -1.4288  0.4739
H       3.4436  -0.0773  1.3960
H       1.3854  -0.9789  1.9960
H       1.5249  0.6263  2.0069
H       -1.5511  -0.6455  -1.9257
