27

Co      0.0741  -0.0061  0.0389
Cl      -0.0063  -2.3228  -0.2158
Cl      -0.0067  2.3270  0.2118
N       -1.4187  0.2051  -1.3851
N       -1.4318  -0.2093  1.4218
N       1.4301  0.1909  -1.4141
N       1.2861  -0.1947  1.3037
C       -2.7945  0.4170  -0.6965
C       -2.7947  -0.4106  0.6793
C       2.7880  0.4297  -0.7170
C       2.6900  -0.3934  0.6606
H       -1.2777  0.8750  -2.1122
H       -2.9208  1.4747  -0.5295
H       -3.5786  0.0676  -1.3614
H       -3.5934  -0.0935  1.3427
H       -2.8929  -1.4670  0.4944
H       -1.4623  0.7112  1.8410
H       -1.3395  -0.8927  2.1535
H       1.4431  -0.7415  -1.8009
H       1.2549  0.8488  -2.1480
H       3.5887  0.0603  -1.3449
H       2.9146  1.4940  -0.5635
H       2.7886  -1.4536  0.4596
H       3.4267  -0.1053  1.4048
H       1.1157  -0.9053  1.9832
H       1.2789  0.7003  1.7571
H       -1.4298  -0.7254  -1.7965
