27

Co      0.0000  0.0061  -0.0389
Cl      0.0002  -2.2967  -0.2102
Cl      -0.0001  2.2927  0.2144
N       -1.5225  0.1584  -1.3243
N       -1.5879  -0.1545  1.3610
N       1.5225  0.1584  -1.3242
N       1.5879  -0.1540  1.3610
C       -2.8071  0.4026  -0.6130
C       -2.8564  -0.4224  0.6498
C       2.8071  0.4026  -0.6131
C       2.8564  -0.4219  0.6500
H       -1.1359  0.9331  -1.8750
H       -2.9161  1.4466  -0.3624
H       -3.6287  0.1106  -1.2512
H       -3.7069  -0.0727  1.2264
H       -2.9944  -1.4704  0.4320
H       -1.3960  0.7715  1.7855
H       -1.1731  -0.8968  1.9358
H       1.3263  -0.7456  -1.7848
H       1.1361  0.9328  -1.8752
H       3.6287  0.1102  -1.2513
H       2.9162  1.4466  -0.3630
H       2.9947  -1.4700  0.4326
H       3.7023  -0.0718  1.2311
H       1.1730  -0.8961  1.9362
H       1.3912  0.7723  1.7852
H       -1.3263  -0.7433  -1.7852
