27

Co      0.0250  0.0427  0.0422
Cl      0.0002  -2.2695  -0.2196
Cl      -0.0001  2.2063  0.2089
N       -1.3869  0.1432  -1.3342
N       -1.4000  -0.1575  1.3743
N       1.4245  0.1295  -1.3077
N       1.2804  -0.1434  1.2006
C       -2.7911  0.3961  -0.6889
C       -2.7913  -0.3897  0.6684
C       2.8403  0.4154  -0.6996
C       2.7422  -0.3791  0.6398
H       -1.3586  0.8341  -2.0865
H       -2.6272  1.4636  -0.4776
H       -3.7303  0.2781  -1.2404
H       -3.7405  -0.3107  1.2229
H       -2.5992  -1.4559  0.4323
H       -1.5282  0.6651  1.9417
H       -1.3834  -0.9191  2.0571
H       1.5122  -0.7790  -1.7328
H       1.3751  0.7823  -2.1033
H       3.7731  0.2724  -1.2468
H       2.6900  1.4857  -0.4989
H       2.5641  -1.4454  0.3849
H       3.6110  -0.3242  1.3033
H       1.2032  -0.9061  1.8679
H       1.3750  0.6738  1.7765
H       -1.4733  -0.7433  -1.8097
