27

Co      -0.0490  0.0061  -0.0389
Cl      0.0068  -2.2987  -0.2139
Cl      0.0064  2.2946  0.2181
N       -1.4854  0.1519  -1.4268
N       -1.5508  -0.1479  1.4635
N       1.5116  0.1485  -1.3711
N       1.5770  -0.1441  1.4079
C       -2.6918  0.4332  -0.6270
C       -2.7411  -0.4530  0.6638
C       2.7474  0.4397  -0.6173
C       2.7966  -0.4591  0.6542
H       -1.0026  0.9332  -1.9358
H       -2.8772  1.4772  -0.4074
H       -3.5201  0.0560  -1.2169
H       -3.5982  -0.0181  1.1921
H       -2.9555  -1.5010  0.4769
H       -1.4838  0.7466  1.9291
H       -1.0398  -0.8969  1.9967
H       1.4435  -0.7402  -1.8434
H       1.0420  0.9034  -1.9164
H       3.5528  0.0654  -1.2400
H       2.9427  1.4837  -0.3916
H       3.0212  -1.5072  0.4612
H       3.6263  -0.0270  1.2197
H       1.0790  -0.8667  1.9774
H       1.5085  0.7669  1.8438
H       -1.4141  -0.7183  -1.9288
