27

Co      0.0000  -0.0427  -0.0422
Cl      0.0002  -2.2578  -0.2105
Cl      -0.0001  2.3211  0.2214
N       -1.4924  0.1134  -1.3522
N       -1.4793  -0.0993  1.3119
N       1.4139  0.1133  -1.2785
N       1.5578  -0.0989  1.3856
C       -2.7441  0.4027  -0.5583
C       -2.7443  -0.4077  0.5788
C       2.6951  0.3879  -0.5388
C       2.7934  -0.4220  0.5987
H       -1.2242  0.9867  -1.8339
H       -2.9324  1.4524  -0.3784
H       -3.5790  -0.0073  -1.1248
H       -3.5642  0.0421  1.1471
H       -2.9617  -1.4587  0.4237
H       -1.6815  0.6791  1.9523
H       -1.2003  -0.9028  1.8624
H       1.6432  -0.5892  -2.0391
H       1.1262  1.0060  -1.7355
H       3.4906  -0.0023  -1.1613
H       2.8863  1.4349  -0.3447
H       3.0139  -1.4731  0.4587
H       3.6526  0.0572  1.1051
H       1.3028  -0.8823  1.9703
H       1.7794  0.6946  1.9962
H       -1.7414  -0.6016  -2.0837
