27

Co      0.0000  0.0000  0.0000
Cl      0.0002  -2.3249  -0.2138
Cl      -0.0001  2.3249  0.2139
N       -1.3204  0.1750  -1.3220
N       -1.3989  -0.1751  1.3955
N       1.3989  0.1712  -1.3956
N       1.3203  -0.1709  1.3219
C       -2.7640  0.3530  -0.6781
C       -2.8134  -0.3670  0.6977
C       2.8132  0.3677  -0.6979
C       2.7643  -0.3518  0.6783
H       -1.4318  0.9717  -1.9889
H       -2.6637  1.4173  -0.4833
H       -3.5700  0.2254  -1.4018
H       -3.6538  -0.2145  1.3671
H       -2.7135  -1.4342  0.5177
H       -1.5604  0.6265  1.9994
H       -1.5304  -0.9527  2.0915
H       1.5689  -0.6271  -1.9949
H       1.5302  0.9481  -2.0960
H       3.6584  0.2190  -1.3626
H       2.7092  1.4386  -0.5146
H       2.6609  -1.4228  0.4803
H       3.5699  -0.2272  1.4020
H       1.4321  -0.9678  1.9925
H       1.4702  0.6125  1.9511
H       -1.4670  -0.6121  -1.9549
