27

Co      -0.0741  -0.0427  -0.0422
Cl      0.0068  -2.3060  -0.2197
Cl      0.0064  2.3693  0.2306
N       -1.5170  0.1272  -1.3116
N       -1.5039  -0.1132  1.2713
N       1.5056  0.1413  -1.2825
N       1.6496  -0.1268  1.3896
C       -2.7324  0.4005  -0.5858
C       -2.7326  -0.4055  0.6063
C       2.7389  0.3877  -0.5656
C       2.8372  -0.4218  0.6254
H       -1.3449  0.8821  -1.9561
H       -2.7614  1.4522  -0.3414
H       -3.5999  0.1675  -1.1834
H       -3.5851  -0.1327  1.2057
H       -2.7907  -1.4585  0.3866
H       -1.5449  0.7904  1.7096
H       -1.3210  -0.7981  1.9845
H       1.5915  -0.6973  -1.8358
H       1.3681  0.9076  -1.9163
H       3.5897  0.1785  -1.2002
H       2.7679  1.4329  -0.3087
H       2.8956  -1.4711  0.4227
H       3.7516  -0.1235  1.1439
H       1.5402  -0.7839  2.1511
H       1.7277  0.8027  1.7928
H       -1.6048  -0.7129  -1.8410
