27

Co      0.0000  0.0488  0.0034
Cl      0.0002  -2.3107  -0.2229
Cl      -0.0001  2.2435  0.2163
N       -1.3845  0.1642  -1.3134
N       -1.3845  -0.1744  1.3167
N       1.3845  0.1641  -1.3134
N       1.3844  -0.1739  1.3168
C       -2.7099  0.3836  -0.6368
C       -2.7102  -0.3828  0.6334
C       2.7100  0.3835  -0.6369
C       2.7101  -0.3824  0.6336
H       -1.3715  0.7844  -2.1447
H       -2.6901  1.4383  -0.3974
H       -3.5606  0.1844  -1.2690
H       -3.5606  -0.1901  1.2658
H       -2.6908  -1.4375  0.3873
H       -1.3178  0.7696  1.7023
H       -1.3349  -0.8522  2.0735
H       1.2911  -0.8342  -1.6140
H       1.3716  0.7841  -2.1405
H       3.5606  0.1885  -1.2692
H       2.6902  1.4383  -0.3980
H       2.6911  -1.4372  0.3880
H       3.5605  -0.1936  1.2659
H       1.3303  -0.8515  2.0695
H       1.3175  0.7703  1.7020
H       -1.2911  -0.8339  -1.6144
