27

Co      0.0000  -0.0061  0.0389
Cl      0.0002  -2.2802  -0.2180
Cl      -0.0001  2.2844  0.2140
N       -1.4452  0.1406  -1.2706
N       -1.4583  -0.1448  1.3073
N       1.5237  0.1405  -1.3441
N       1.3797  -0.1443  1.2337
C       -2.7711  0.4104  -0.6436
C       -2.7714  -0.4040  0.6264
C       2.8203  0.4251  -0.6633
C       2.7223  -0.3888  0.6070
H       -1.2387  0.8664  -1.9280
H       -2.8484  1.4672  -0.4425
H       -3.5724  0.1217  -1.3034
H       -3.5871  -0.1476  1.2847
H       -2.8204  -1.4566  0.4073
H       -1.5172  0.7164  1.8142
H       -1.3005  -0.8841  1.9693
H       1.5829  -0.7436  -1.8134
H       1.3371  0.8465  -2.0314
H       3.6607  0.1115  -1.2643
H       2.8976  1.4819  -0.4774
H       2.7716  -1.4416  0.3736
H       3.4987  -0.1565  1.3242
H       1.2022  -0.9030  1.8666
H       1.4187  0.7024  1.7696
H       -1.4847  -0.7306  -1.7697
