27

Co      0.0000  0.0427  0.0422
Cl      0.0002  -2.3049  -0.2175
Cl      -0.0001  2.2418  0.2067
N       -1.3703  0.1893  -1.3525
N       -1.3049  -0.2036  1.3189
N       1.3703  0.1855  -1.3524
N       1.3048  -0.1994  1.3190
C       -2.7748  0.3929  -0.6993
C       -2.7260  -0.3717  0.6591
C       2.7749  0.3929  -0.6994
C       2.7260  -0.3713  0.6593
H       -1.3185  0.8259  -2.1473
H       -2.7908  1.4506  -0.5043
H       -3.5927  0.1390  -1.3536
H       -3.5191  -0.1814  1.3708
H       -2.7137  -1.4281  0.4247
H       -1.2119  0.7075  1.7632
H       -1.2451  -0.9306  2.0148
H       1.2544  -0.7987  -1.6712
H       1.3187  0.8218  -2.1468
H       3.5927  0.1468  -1.3537
H       2.7871  1.4572  -0.5012
H       2.7103  -1.4315  0.4216
H       3.5190  -0.1888  1.3709
H       1.2406  -0.9260  2.0145
H       1.2154  0.7083  1.7591
H       -1.2507  -0.8005  -1.6753
