27

Co      0.0000  0.0488  0.0034
Cl      0.0002  -2.2787  -0.2176
Cl      -0.0001  2.2115  0.2109
N       -1.4220  0.1426  -1.3486
N       -1.4220  -0.1529  1.3518
N       1.4220  0.1426  -1.3485
N       1.4220  -0.1524  1.3519
C       -2.7505  0.4229  -0.7209
C       -2.7507  -0.4221  0.7176
C       2.7505  0.4228  -0.7211
C       2.7507  -0.4217  0.7178
H       -1.4390  0.8397  -2.1033
H       -2.6482  1.4892  -0.5232
H       -3.5604  0.3095  -1.4443
H       -3.5558  -0.3151  1.4456
H       -2.6489  -1.4913  0.5131
H       -1.6980  0.6261  1.9737
H       -1.4024  -0.9076  2.0321
H       1.6758  -0.6907  -1.8854
H       1.4392  0.8394  -2.1035
H       3.5603  0.3091  -1.4473
H       2.6455  1.4920  -0.5238
H       2.6463  -1.4909  0.5137
H       3.5603  -0.3142  1.4441
H       1.4023  -0.9068  2.0325
H       1.7022  0.6269  1.9733
H       -1.6758  -0.6905  -1.8858
