27

Co      -0.0741  0.0061  -0.0389
Cl      0.0068  -2.2523  -0.2085
Cl      0.0064  2.2483  0.2127
N       -1.5047  0.1506  -1.3203
N       -1.4916  -0.1466  1.2834
N       1.4933  0.1609  -1.2912
N       1.6372  -0.1565  1.4016
C       -2.7376  0.3760  -0.6062
C       -2.7378  -0.3810  0.6233
C       2.7442  0.3632  -0.5860
C       2.8425  -0.3973  0.6425
H       -1.3566  0.9181  -1.9548
H       -2.8256  1.4314  -0.4068
H       -3.5876  0.0751  -1.1971
H       -3.5728  -0.0470  1.2161
H       -2.8548  -1.4377  0.4419
H       -1.5249  0.7037  1.8108
H       -1.2956  -0.9015  1.9125
H       1.5483  -0.6746  -1.8457
H       1.3798  0.9399  -1.9188
H       3.5774  0.0898  -1.2139
H       2.8283  1.4159  -0.3703
H       2.9559  -1.4541  0.4743
H       3.7393  -0.0416  1.1543
H       1.5149  -0.8835  2.0829
H       1.7114  0.7160  1.8903
H       -1.5579  -0.6902  -1.8546
