27

Co      -0.0250  -0.0427  -0.0422
Cl      0.0002  -2.3022  -0.2122
Cl      -0.0001  2.3655  0.2231
N       -1.4876  0.1218  -1.2956
N       -1.4745  -0.1077  1.2553
N       1.4501  0.1354  -1.3221
N       1.5940  -0.1209  1.4292
C       -2.8049  0.3940  -0.6205
C       -2.8052  -0.3990  0.6410
C       2.7559  0.3747  -0.6101
C       2.8542  -0.4088  0.6700
H       -1.2401  0.9937  -1.7854
H       -2.8117  1.4467  -0.3920
H       -3.6292  0.1853  -1.2852
H       -3.6145  -0.1504  1.3075
H       -2.8410  -1.4558  0.4373
H       -1.5086  0.6994  1.8563
H       -1.2162  -0.9097  1.8139
H       1.5295  -0.5867  -2.0638
H       1.2240  1.0449  -1.7735
H       3.5864  0.1857  -1.2791
H       2.7491  1.4274  -0.3720
H       2.8767  -1.4656  0.4860
H       3.7483  -0.1308  1.2229
H       1.4006  -0.9212  2.0083
H       1.6657  0.6920  2.0208
H       -1.5685  -0.6219  -1.9877
