27

Co      0.0000  0.0000  0.0000
Cl      0.0002  -2.2894  -0.2159
Cl      -0.0001  2.2895  0.2160
N       -1.5111  0.1550  -1.3295
N       -1.5111  -0.1552  1.3294
N       1.5111  0.1550  -1.3294
N       1.5111  -0.1547  1.3294
C       -2.7298  0.3847  -0.6241
C       -2.7300  -0.3840  0.6241
C       2.7298  0.3846  -0.6242
C       2.7300  -0.3835  0.6243
H       -1.2089  0.8957  -1.9484
H       -2.8084  1.4470  -0.4406
H       -3.6842  0.0453  -1.0607
H       -3.6842  -0.0442  1.0609
H       -2.8091  -1.4435  0.4406
H       -1.4825  0.7248  1.8117
H       -1.2093  -0.8962  1.9480
H       1.4828  -0.7254  -1.8110
H       1.2091  0.8954  -1.9487
H       3.6842  0.0449  -1.0608
H       2.8085  1.4442  -0.4412
H       2.8094  -1.4431  0.4413
H       3.6841  -0.0433  1.0610
H       1.2093  -0.8955  1.9483
H       1.4823  0.7255  1.8114
H       -1.4828  -0.7251  -1.8114
