27

Co      0.0000  -0.0488  -0.0034
Cl      0.0002  -2.2630  -0.2125
Cl      -0.0001  2.3303  0.2194
N       -1.5638  0.1251  -1.3933
N       -1.5638  -0.1151  1.3898
N       1.5638  0.1250  -1.3932
N       1.5638  -0.1146  1.3899
C       -2.7119  0.4125  -0.6090
C       -2.7121  -0.4118  0.6124
C       2.7120  0.4125  -0.6092
C       2.7121  -0.4114  0.6126
H       -1.0253  1.0114  -1.7716
H       -2.9101  1.4613  -0.4072
H       -3.5769  0.0153  -1.1360
H       -3.5814  -0.0075  1.1350
H       -2.9108  -1.4578  0.4173
H       -1.5027  0.7125  1.9628
H       -1.0628  -0.9446  1.8419
H       1.5253  -0.6492  -2.0496
H       1.0255  1.0111  -1.7763
H       3.5768  0.0105  -1.1361
H       2.9102  1.4585  -0.4078
H       2.9110  -1.4574  0.4179
H       3.5768  -0.0022  1.1397
H       1.0671  -0.9438  1.8467
H       1.4979  0.7132  1.9624
H       -1.5253  -0.6489  -2.0500
