27

Co      0.0000  -0.0488  -0.0034
Cl      0.0002  -2.2610  -0.2089
Cl      -0.0001  2.3284  0.2157
N       -1.5405  0.1258  -1.3219
N       -1.5405  -0.1158  1.3185
N       1.5405  0.1257  -1.3219
N       1.5405  -0.1154  1.3185
C       -2.8276  0.4292  -0.6380
C       -2.8278  -0.4285  0.6413
C       2.8277  0.4291  -0.6381
C       2.8278  -0.4280  0.6415
H       -1.1960  0.9848  -1.7938
H       -2.9613  1.4839  -0.4571
H       -3.6205  0.0907  -1.2927
H       -3.6205  -0.0829  1.2962
H       -2.9620  -1.4832  0.4672
H       -1.7102  0.6627  1.9536
H       -1.2335  -0.9180  1.8640
H       1.7373  -0.5994  -2.0404
H       1.1962  0.9845  -1.7985
H       3.6205  0.0859  -1.2928
H       2.9614  1.4839  -0.4578
H       2.9622  -1.4828  0.4679
H       3.6204  -0.0776  1.2963
H       1.2378  -0.9172  1.8688
H       1.7099  0.6634  1.9533
H       -1.7373  -0.5991  -2.0408
