27

Co      -0.0250  -0.0427  -0.0422
Cl      0.0002  -2.3060  -0.2197
Cl      -0.0001  2.3693  0.2306
N       -1.5623  0.0950  -1.2885
N       -1.5492  -0.0809  1.2482
N       1.5248  0.1123  -1.3150
N       1.6687  -0.0978  1.4221
C       -2.7601  0.4043  -0.5681
C       -2.7603  -0.4093  0.5886
C       2.7110  0.3850  -0.5576
C       2.8094  -0.4190  0.6175
H       -1.1116  0.9421  -1.7485
H       -2.7986  1.4473  -0.2805
H       -3.6405  0.1835  -1.1499
H       -3.6302  -0.1487  1.1677
H       -2.8279  -1.4536  0.3258
H       -1.3688  0.8075  1.7292
H       -1.0877  -0.8582  1.7770
H       1.3815  -0.6948  -1.9404
H       1.0956  0.9971  -1.7329
H       3.5976  0.1802  -1.1438
H       2.7397  1.4215  -0.2642
H       2.8674  -1.4596  0.3782
H       3.7595  -0.1253  1.0876
H       1.2722  -0.8734  1.9677
H       1.5176  0.8002  1.8974
H       -1.4242  -0.7300  -1.8606
