27

Co      0.0000  0.0000  0.0000
Cl      0.0002  -2.2503  -0.2106
Cl      -0.0001  2.2503  0.2107
N       -1.5347  0.1111  -1.3458
N       -1.5347  -0.1112  1.3457
N       1.5347  0.1110  -1.3457
N       1.5347  -0.1108  1.3457
C       -2.7889  0.4354  -0.6216
C       -2.7892  -0.4347  0.6216
C       2.7890  0.4354  -0.6217
C       2.7892  -0.4343  0.6218
H       -1.1364  0.9623  -1.8021
H       -2.9785  1.4765  -0.3983
H       -3.5045  0.0965  -1.3745
H       -3.5090  -0.0954  1.3702
H       -2.9792  -1.4758  0.3983
H       -1.5647  0.6737  1.9833
H       -1.1368  -0.9629  1.8016
H       1.5604  -0.6744  -1.9826
H       1.1365  0.9620  -1.8068
H       3.5045  0.0916  -1.3747
H       2.9786  1.4766  -0.3989
H       2.9795  -1.4755  0.3989
H       3.5044  -0.0901  1.3748
H       1.1411  -0.9621  1.8064
H       1.5599  0.6745  1.9830
H       -1.5604  -0.6741  -1.9830
