27

Co      0.0000  -0.0061  0.0389
Cl      0.0002  -2.2750  -0.2216
Cl      -0.0001  2.2792  0.2176
N       -1.3910  0.1319  -1.2879
N       -1.4041  -0.1361  1.3246
N       1.4696  0.1318  -1.3614
N       1.3255  -0.1356  1.2510
C       -2.7014  0.4121  -0.6436
C       -2.7016  -0.4057  0.6264
C       2.7505  0.4268  -0.6633
C       2.6525  -0.3905  0.6070
H       -1.1827  0.8542  -1.9470
H       -2.7595  1.4689  -0.4356
H       -3.5147  0.1407  -1.2896
H       -3.5295  -0.1666  1.2709
H       -2.7316  -1.4583  0.4004
H       -1.4681  0.7286  1.8263
H       -1.2445  -0.8719  1.9883
H       1.5338  -0.7558  -1.8255
H       1.2811  0.8343  -2.0504
H       3.6031  0.1305  -1.2505
H       2.8087  1.4836  -0.4705
H       2.6828  -1.4433  0.3667
H       3.4410  -0.1755  1.3103
H       1.1463  -0.8908  1.8856
H       1.3697  0.7146  1.7817
H       -1.4356  -0.7428  -1.7818
