27

Co      0.0000  0.0488  0.0034
Cl      0.0002  -2.3623  -0.2246
Cl      -0.0001  2.2950  0.2180
N       -1.4017  0.1713  -1.3758
N       -1.4017  -0.1815  1.3791
N       1.4018  0.1712  -1.3757
N       1.4017  -0.1810  1.3791
C       -2.7759  0.4048  -0.6669
C       -2.7761  -0.4041  0.6635
C       2.7760  0.4048  -0.6670
C       2.7761  -0.4037  0.6637
H       -1.3677  0.7991  -2.1886
H       -2.7138  1.4567  -0.4158
H       -3.6218  0.2459  -1.3290
H       -3.6218  -0.2516  1.3258
H       -2.7145  -1.4588  0.4057
H       -1.3347  0.7569  1.7740
H       -1.3311  -0.8669  2.1174
H       1.3080  -0.8215  -1.6857
H       1.3679  0.7988  -2.1844
H       3.6218  0.2500  -1.3291
H       2.7139  1.4595  -0.4164
H       2.7148  -1.4584  0.4063
H       3.6217  -0.2551  1.3259
H       1.3266  -0.8662  2.1134
H       1.3344  0.7576  1.7736
H       -1.3080  -0.8212  -1.6861
