27

Co      -0.0490  0.0000  0.0000
Cl      0.0068  -2.3004  -0.2234
Cl      0.0064  2.3004  0.2235
N       -1.5282  0.1242  -1.4414
N       -1.5282  -0.1243  1.4413
N       1.5544  0.1246  -1.3858
N       1.5544  -0.1243  1.3858
C       -2.7255  0.4351  -0.6223
C       -2.7258  -0.4344  0.6223
C       2.7812  0.4416  -0.6126
C       2.7813  -0.4405  0.6127
H       -1.1224  0.8652  -2.0201
H       -2.7492  1.4773  -0.3395
H       -3.6318  0.2085  -1.1707
H       -3.6363  -0.2074  1.1663
H       -2.7499  -1.4766  0.3396
H       -1.3708  0.8014  1.8594
H       -1.1228  -0.8657  2.0196
H       1.3922  -0.8217  -1.7774
H       1.1618  0.8392  -1.9969
H       3.6645  0.2142  -1.1937
H       2.8185  1.4802  -0.3276
H       2.8193  -1.4791  0.3276
H       3.6644  -0.2126  1.1939
H       1.1620  -0.8393  1.9966
H       1.3917  0.8218  1.7778
H       -1.3665  -0.8018  -1.8591
