27

Co      -0.0490  -0.0427  -0.0422
Cl      0.0068  -2.2258  -0.2052
Cl      0.0064  2.2891  0.2161
N       -1.5564  0.1721  -1.4295
N       -1.5433  -0.1581  1.3892
N       1.5040  0.1688  -1.3002
N       1.6480  -0.1543  1.4073
C       -2.7328  0.3762  -0.6235
C       -2.7330  -0.3812  0.6441
C       2.7394  0.3679  -0.5942
C       2.8377  -0.4020  0.6541
H       -1.2622  0.9771  -1.9791
H       -2.7874  1.4365  -0.4327
H       -3.7289  0.0567  -1.0154
H       -3.7141  -0.0219  1.0378
H       -2.8167  -1.4427  0.4780
H       -1.4946  0.7342  1.8566
H       -1.2383  -0.8932  2.0076
H       1.4857  -0.6639  -1.8584
H       1.2035  0.9671  -1.8566
H       3.6732  0.0759  -1.0777
H       2.8038  1.4255  -0.3826
H       2.9315  -1.4637  0.4967
H       3.8351  -0.0210  1.0215
H       1.3757  -0.8433  2.0914
H       1.6219  0.7693  1.8154
H       -1.5545  -0.6567  -1.9880
