27

Co      -0.0250  0.0061  -0.0389
Cl      0.0002  -2.3468  -0.2231
Cl      -0.0001  2.3428  0.2273
N       -1.5332  0.1274  -1.3565
N       -1.5201  -0.1234  1.3195
N       1.4956  0.1447  -1.3829
N       1.6396  -0.1403  1.4934
C       -2.7920  0.4316  -0.6224
C       -2.7922  -0.4366  0.6395
C       2.7430  0.4122  -0.6120
C       2.8413  -0.4463  0.6685
H       -1.2099  0.8319  -2.0149
H       -2.7572  1.4853  -0.3709
H       -3.7488  0.2200  -1.1153
H       -3.7340  -0.1919  1.1343
H       -2.7865  -1.4944  0.4060
H       -1.4985  0.7866  1.7474
H       -1.1490  -0.8152  1.9727
H       1.4887  -0.7379  -1.8711
H       1.1939  0.8868  -1.9948
H       3.7059  0.2211  -1.1092
H       2.6983  1.4623  -0.3545
H       2.8260  -1.5005  0.4585
H       3.8678  -0.1729  1.0496
H       1.3290  -0.8304  2.1589
H       1.6518  0.7793  1.9157
H       -1.5315  -0.7730  -1.7913
