27

Co      -0.0741  0.0061  -0.0389
Cl      0.0068  -2.2915  -0.2139
Cl      0.0064  2.2875  0.2181
N       -1.4740  0.1446  -1.3561
N       -1.4609  -0.1406  1.3192
N       1.4626  0.1549  -1.3270
N       1.6066  -0.1505  1.4374
C       -2.7341  0.4107  -0.6231
C       -2.7343  -0.4157  0.6403
C       2.7406  0.3979  -0.6029
C       2.8389  -0.4320  0.6595
H       -1.0684  0.9099  -1.9121
H       -2.8259  1.4546  -0.3740
H       -3.5761  0.1220  -1.2291
H       -3.5659  -0.0940  1.2435
H       -2.8552  -1.4637  0.4092
H       -1.2535  0.7779  1.7565
H       -1.0075  -0.8933  1.8698
H       1.2724  -0.7488  -1.7915
H       1.0916  0.9317  -1.8761
H       3.5660  0.1367  -1.2459
H       2.8287  1.4419  -0.3376
H       2.9563  -1.4801  0.4415
H       3.7279  -0.0885  1.1863
H       1.2268  -0.8753  2.0402
H       1.4355  0.7902  1.8360
H       -1.2820  -0.7644  -1.8004
