27

Co      0.0000  -0.0488  -0.0034
Cl      0.0002  -2.3073  -0.2142
Cl      -0.0001  2.3747  0.2211
N       -1.5599  0.1299  -1.3678
N       -1.5599  -0.1199  1.3643
N       1.5599  0.1298  -1.3677
N       1.5599  -0.1194  1.3644
C       -2.7506  0.4014  -0.6174
C       -2.7508  -0.4007  0.6208
C       2.7506  0.4014  -0.6175
C       2.7508  -0.4003  0.6210
H       -1.2490  1.0098  -1.8229
H       -2.9074  1.4590  -0.4517
H       -3.5959  0.0304  -1.1868
H       -3.5959  -0.0226  1.1903
H       -2.9081  -1.4554  0.4618
H       -1.7343  0.6453  2.0205
H       -1.2864  -0.9430  1.8931
H       1.7615  -0.5819  -2.1073
H       1.2492  1.0095  -1.8276
H       3.5959  0.0256  -1.1869
H       2.9075  1.4562  -0.4523
H       2.9084  -1.4551  0.4624
H       3.5958  -0.0173  1.1904
H       1.2908  -0.9422  1.8979
H       1.7341  0.6460  2.0202
H       -1.7615  -0.5817  -2.1077
