27

Co      0.0000  -0.0488  -0.0034
Cl      0.0002  -2.3073  -0.2142
Cl      -0.0001  2.3747  0.2211
N       -1.5187  0.1623  -1.3935
N       -1.5187  -0.1524  1.3901
N       1.5187  0.1623  -1.3935
N       1.5187  -0.1519  1.3901
C       -2.7957  0.4011  -0.6429
C       -2.7960  -0.4004  0.6462
C       2.7958  0.4010  -0.6430
C       2.7959  -0.3999  0.6464
H       -1.3322  0.9538  -1.9812
H       -2.8467  1.4558  -0.4345
H       -3.6485  0.1344  -1.2499
H       -3.6484  -0.1266  1.2534
H       -2.8473  -1.4551  0.4446
H       -1.5587  0.7198  1.8833
H       -1.3696  -0.8870  2.0515
H       1.5859  -0.6564  -1.9701
H       1.3324  0.9535  -1.9815
H       3.6484  0.1341  -1.2501
H       2.8468  1.4558  -0.4351
H       2.8476  -1.4547  0.4453
H       3.6484  -0.1257  1.2536
H       1.3695  -0.8862  2.0518
H       1.5585  0.7205  1.8830
H       -1.5859  -0.6562  -1.9705
