27

Co      0.0000  0.0000  0.0000
Cl      0.0002  -2.2823  -0.2159
Cl      -0.0001  2.2823  0.2160
N       -1.4420  0.1377  -1.2890
N       -1.4420  -0.1379  1.2889
N       1.4420  0.1377  -1.2889
N       1.4420  -0.1374  1.2889
C       -2.7712  0.4027  -0.6253
C       -2.7714  -0.4020  0.6253
C       2.7712  0.4027  -0.6254
C       2.7714  -0.4016  0.6255
H       -1.4149  0.8847  -1.9732
H       -2.8486  1.4526  -0.4055
H       -3.4828  0.1594  -1.4249
H       -3.4828  -0.1583  1.4251
H       -2.8493  -1.4518  0.4055
H       -1.5735  0.6991  1.8357
H       -1.4153  -0.8852  1.9727
H       1.5738  -0.6997  -1.8350
H       1.4151  0.8844  -1.9734
H       3.4828  0.1590  -1.4251
H       2.8487  1.4526  -0.4061
H       2.8496  -1.4515  0.4061
H       3.4827  -0.1574  1.4252
H       1.4152  -0.8845  1.9731
H       1.5733  0.6998  1.8354
H       -1.5738  -0.6995  -1.8354
