27

Co      -0.0490  0.0000  0.0000
Cl      0.0068  -2.3018  -0.2123
Cl      0.0064  2.3019  0.2124
N       -1.5763  0.1217  -1.4136
N       -1.5763  -0.1219  1.4135
N       1.6025  0.1184  -1.3579
N       1.6024  -0.1181  1.3579
C       -2.7768  0.4075  -0.5699
C       -2.7770  -0.4068  0.5698
C       2.8324  0.4140  -0.5602
C       2.8326  -0.4129  0.5602
H       -1.0773  0.9989  -1.8150
H       -3.0349  1.4506  -0.3815
H       -3.6411  -0.0720  -1.0714
H       -3.6456  0.0731  1.0670
H       -3.0355  -1.4471  0.3816
H       -1.5591  0.6643  2.0541
H       -1.0778  -0.9994  1.8145
H       1.5842  -0.6845  -1.9684
H       1.1167  0.9691  -1.8000
H       3.6737  -0.0670  -1.0916
H       3.1033  1.4544  -0.3658
H       3.1041  -1.4533  0.3659
H       3.6737  0.0686  1.0917
H       1.1213  -0.9692  1.7997
H       1.5837  0.6846  1.9688
H       -1.5548  -0.6646  -2.0538
