27

Co      -0.0741  0.0061  -0.0389
Cl      0.0068  -2.2595  -0.2085
Cl      0.0064  2.2555  0.2127
N       -1.5529  0.1466  -1.3913
N       -1.5398  -0.1426  1.3543
N       1.5416  0.1569  -1.3621
N       1.6855  -0.1525  1.4726
C       -2.7153  0.4127  -0.5972
C       -2.7155  -0.4177  0.6144
C       2.7219  0.3999  -0.5770
C       2.8202  -0.4340  0.6335
H       -1.2446  0.9337  -1.9461
H       -2.9715  1.4546  -0.3917
H       -3.4625  0.0019  -1.2785
H       -3.4522  0.0262  1.2930
H       -3.0008  -1.4608  0.4268
H       -1.5363  0.7126  1.8772
H       -1.1837  -0.9171  1.9039
H       1.5552  -0.6835  -1.9121
H       1.2678  0.9555  -1.9101
H       3.4523  0.0166  -1.2953
H       2.9742  1.4390  -0.3552
H       3.1019  -1.4772  0.4592
H       3.6142  0.0316  1.2357
H       1.4029  -0.8991  2.0742
H       1.7183  0.7249  1.9567
H       -1.5648  -0.6990  -1.9211
