27

Co      0.0741  0.0000  0.0000
Cl      -0.0063  -2.2785  -0.2084
Cl      -0.0067  2.2786  0.2085
N       -1.4253  0.2103  -1.3408
N       -1.4253  -0.2104  1.3407
N       1.3582  0.1960  -1.2961
N       1.3582  -0.1958  1.2961
C       -2.8478  0.3820  -0.6788
C       -2.8481  -0.3813  0.6788
C       2.7923  0.3799  -0.6796
C       2.7925  -0.3788  0.6797
H       -1.3982  0.8914  -2.0957
H       -2.8666  1.4376  -0.4701
H       -3.6527  0.1444  -1.3646
H       -3.6527  -0.1433  1.3647
H       -2.8673  -1.4397  0.4701
H       -1.3245  0.7401  1.7263
H       -1.3986  -0.8919  2.0952
H       1.2399  -0.7439  -1.6862
H       1.2772  0.8849  -2.0284
H       3.5745  0.1469  -1.3874
H       2.8113  1.4422  -0.4696
H       2.8121  -1.4411  0.4697
H       3.5744  -0.1454  1.3875
H       1.2729  -0.8849  2.0280
H       1.2394  0.7439  1.6866
H       -1.3248  -0.7404  -1.7260
