27

Co      -0.0490  -0.0488  -0.0034
Cl      0.0068  -2.2558  -0.2125
Cl      0.0064  2.3232  0.2194
N       -1.4642  0.1173  -1.3616
N       -1.4642  -0.1073  1.3581
N       1.4903  0.1140  -1.3059
N       1.4903  -0.1036  1.3026
C       -2.7293  0.3677  -0.5675
C       -2.7295  -0.3670  0.5708
C       2.7849  0.3742  -0.5578
C       2.7851  -0.3731  0.5612
H       -1.2603  1.0144  -1.8315
H       -2.8147  1.4195  -0.3653
H       -3.6115  0.0478  -1.1055
H       -3.6114  -0.0399  1.1090
H       -2.8153  -1.4160  0.3754
H       -1.5578  0.6753  1.9996
H       -1.2978  -0.9477  1.9017
H       1.6144  -0.6316  -2.0015
H       1.2997  0.9847  -1.8166
H       3.6441  0.0528  -1.1256
H       2.8830  1.4232  -0.3496
H       2.8839  -1.4221  0.3597
H       3.6441  -0.0445  1.1291
H       1.3413  -0.9175  1.8869
H       1.5870  0.6957  1.9143
H       -1.5850  -0.6117  -2.0869
