27

Co      0.0000  -0.0488  -0.0034
Cl      0.0002  -2.2682  -0.2089
Cl      -0.0001  2.3355  0.2157
N       -1.5620  0.1306  -1.3794
N       -1.5620  -0.1206  1.3759
N       1.5621  0.1305  -1.3793
N       1.5620  -0.1201  1.3759
C       -2.8228  0.4268  -0.6428
C       -2.8230  -0.4261  0.6461
C       2.8229  0.4268  -0.6429
C       2.8230  -0.4256  0.6463
H       -1.2247  1.0039  -1.8345
H       -2.9446  1.4815  -0.4619
H       -3.6421  0.0955  -1.2664
H       -3.6420  -0.0876  1.2699
H       -2.9452  -1.4808  0.4720
H       -1.7365  0.6484  2.0254
H       -1.2622  -0.9371  1.9047
H       1.7636  -0.5850  -2.1122
H       1.2249  1.0036  -1.8391
H       3.6420  0.0907  -1.2665
H       2.9447  1.4815  -0.4625
H       2.9455  -1.4804  0.4727
H       3.6420  -0.0824  1.2700
H       1.2665  -0.9363  1.9095
H       1.7362  0.6491  2.0251
H       -1.7637  -0.5848  -2.1126
