27

Co      0.0000  0.0488  0.0034
Cl      0.0002  -2.2716  -0.2176
Cl      -0.0001  2.2043  0.2109
N       -1.3885  0.1324  -1.2624
N       -1.4671  -0.1426  1.3393
N       1.4671  0.1324  -1.3360
N       1.3885  -0.1422  1.2657
C       -2.7125  0.4019  -0.6268
C       -2.7618  -0.4159  0.6431
C       2.7616  0.4166  -0.6466
C       2.7127  -0.4008  0.6237
H       -1.2149  0.8443  -1.9464
H       -2.7634  1.4566  -0.4076
H       -3.5100  0.1504  -1.3051
H       -3.5983  -0.1462  1.2626
H       -2.8132  -1.4706  0.4319
H       -1.5446  0.7055  1.8665
H       -1.2765  -0.8926  1.9783
H       1.5179  -0.7701  -1.7782
H       1.3133  0.8244  -2.0497
H       3.5983  0.1402  -1.2659
H       2.8126  1.4714  -0.4426
H       2.7644  -1.4555  0.3982
H       3.5099  -0.1551  1.3020
H       1.1782  -0.9114  1.8756
H       1.4461  0.6915  1.8219
H       -1.4197  -0.7551  -1.7344
