27

Co      0.0000  0.0427  0.0422
Cl      0.0002  -2.2767  -0.2196
Cl      -0.0001  2.2135  0.2089
N       -1.4146  0.1324  -1.3551
N       -1.4277  -0.1467  1.3952
N       1.4932  0.1323  -1.4287
N       1.3492  -0.1462  1.3217
C       -2.7688  0.4351  -0.6754
C       -2.7691  -0.4287  0.6548
C       2.8180  0.4498  -0.6951
C       2.7200  -0.4135  0.6354
H       -1.2057  0.8338  -2.0346
H       -2.7799  1.4890  -0.4556
H       -3.5824  0.2071  -1.3446
H       -3.5971  -0.2398  1.3225
H       -2.7520  -1.4813  0.4104
H       -1.5100  0.6853  1.9467
H       -1.2305  -0.9188  2.0052
H       1.5488  -0.7765  -1.8584
H       1.3041  0.8138  -2.1379
H       3.6708  0.1969  -1.3054
H       2.8291  1.5066  -0.4906
H       2.7032  -1.4662  0.3767
H       3.5087  -0.2487  1.3619
H       1.1322  -0.9377  1.9025
H       1.4116  0.6713  1.9022
H       -1.4506  -0.7636  -1.8146
