27

Co      -0.0250  -0.0488  -0.0034
Cl      0.0002  -2.2595  -0.2200
Cl      -0.0001  2.3269  0.2269
N       -1.5108  0.1156  -1.3311
N       -1.4322  -0.1057  1.2540
N       1.4732  0.1330  -1.3575
N       1.5517  -0.1226  1.4278
C       -2.7872  0.4410  -0.6246
C       -2.7383  -0.4256  0.6083
C       2.7381  0.4217  -0.6142
C       2.7874  -0.4353  0.6373
H       -1.3027  0.8308  -2.0075
H       -2.7813  1.4920  -0.3713
H       -3.6415  0.2381  -1.2504
H       -3.5531  -0.2401  1.2932
H       -2.7328  -1.4765  0.3470
H       -1.4799  0.8012  1.6841
H       -1.2420  -0.7837  1.9746
H       1.5625  -0.7151  -1.8953
H       1.2866  0.8858  -1.9874
H       3.5986  0.2392  -1.2443
H       2.7224  1.4690  -0.3549
H       2.7723  -1.4826  0.3994
H       3.6869  -0.2211  1.2085
H       1.4220  -0.7989  2.1608
H       1.6333  0.7939  1.8523
H       -1.6053  -0.7523  -1.8155
