27

Co      -0.0490  0.0000  0.0000
Cl      0.0068  -2.2894  -0.2159
Cl      0.0064  2.2895  0.2160
N       -1.4732  0.1137  -1.3653
N       -1.4732  -0.1138  1.3652
N       1.4994  0.1104  -1.3097
N       1.4994  -0.1101  1.3097
C       -2.7300  0.4276  -0.6446
C       -2.7303  -0.4269  0.6445
C       2.7857  0.4341  -0.6349
C       2.7858  -0.4330  0.6350
H       -1.1389  0.9536  -1.8580
H       -2.8398  1.4823  -0.4634
H       -3.5465  0.1014  -1.2691
H       -3.5465  -0.1003  1.2692
H       -2.8404  -1.4816  0.4635
H       -1.6598  0.6331  2.0520
H       -1.1394  -0.9542  1.8575
H       1.6895  -0.6533  -1.9663
H       1.1784  0.9239  -1.8430
H       3.5792  0.1064  -1.2921
H       2.9053  1.4889  -0.4477
H       2.9061  -1.4878  0.4478
H       3.5791  -0.1048  1.2923
H       1.1829  -0.9240  1.8427
H       1.6890  0.6534  1.9666
H       -1.6601  -0.6335  -2.0517
