27

Co      0.0490  0.0488  0.0034
Cl      -0.0063  -2.3070  -0.2154
Cl      -0.0067  2.2397  0.2088
N       -1.3456  0.1589  -1.2839
N       -1.3456  -0.1691  1.2871
N       1.3195  0.1584  -1.3394
N       1.3194  -0.1682  1.3428
C       -2.7741  0.4071  -0.6939
C       -2.7743  -0.4064  0.6905
C       2.7185  0.4006  -0.7039
C       2.7187  -0.3995  0.7006
H       -1.2345  0.8563  -2.0061
H       -2.7764  1.4763  -0.5458
H       -3.6242  0.1332  -1.2977
H       -3.6197  -0.1388  1.2990
H       -2.7771  -1.4784  0.5357
H       -1.5470  0.6294  1.8889
H       -1.1979  -0.9242  1.9349
H       1.4991  -0.6744  -1.8820
H       1.1954  0.8817  -2.0297
H       3.5915  0.1268  -1.2749
H       2.7074  1.4764  -0.5590
H       2.7083  -1.4753  0.5489
H       3.5915  -0.1319  1.2717
H       1.1586  -0.9491  1.9586
H       1.5255  0.6105  1.9699
H       -1.5248  -0.6937  -1.8011
