27

Co      0.0000  0.0061  -0.0389
Cl      0.0002  -2.3076  -0.2177
Cl      -0.0001  2.3036  0.2219
N       -1.5631  0.1357  -1.3475
N       -1.6286  -0.1318  1.3842
N       1.5632  0.1394  -1.3474
N       1.6285  -0.1350  1.3842
C       -2.7665  0.3917  -0.5821
C       -2.8158  -0.4115  0.6189
C       2.7665  0.3917  -0.5822
C       2.8158  -0.4110  0.6191
H       -1.4357  0.8839  -2.0086
H       -2.7888  1.4435  -0.3344
H       -3.6484  0.1711  -1.1706
H       -3.7220  -0.1332  1.1503
H       -2.8671  -1.4645  0.4040
H       -1.7083  0.7445  1.8626
H       -1.4729  -0.8477  2.0695
H       1.6394  -0.7186  -1.8656
H       1.4359  0.8874  -2.0051
H       3.6483  0.1670  -1.1708
H       2.7926  1.4369  -0.3388
H       2.8712  -1.4603  0.4084
H       3.7219  -0.1286  1.1505
H       1.4728  -0.8506  2.0661
H       1.7043  0.7452  1.8660
H       -1.6432  -0.7163  -1.8623
