27

Co      0.0000  0.0488  0.0034
Cl      0.0002  -2.2750  -0.2101
Cl      -0.0001  2.2077  0.2034
N       -1.3686  0.1976  -1.3324
N       -1.4471  -0.2079  1.4093
N       1.4471  0.1938  -1.4060
N       1.3685  -0.2036  1.3358
C       -2.7200  0.3427  -0.6408
C       -2.7693  -0.3567  0.6570
C       2.7691  0.3574  -0.6605
C       2.7202  -0.3416  0.6376
H       -1.5136  0.8996  -2.1077
H       -2.7736  1.3963  -0.4311
H       -3.4543  0.1156  -1.4156
H       -3.5426  -0.1114  1.3731
H       -2.8233  -1.4103  0.4554
H       -1.4512  0.6768  1.8887
H       -1.5752  -0.9478  2.1397
H       1.4283  -0.7414  -1.7967
H       1.6120  0.8759  -2.2104
H       3.5426  0.1136  -1.3764
H       2.8190  1.4148  -0.4623
H       2.7708  -1.3990  0.4179
H       3.4542  -0.1285  1.4125
H       1.4725  -0.9629  2.0363
H       1.3565  0.6628  1.8404
H       -1.3264  -0.7264  -1.7567
