27

Co      -0.0250  -0.0427  -0.0422
Cl      0.0002  -2.2578  -0.2105
Cl      -0.0001  2.3211  0.2214
N       -1.4523  0.1170  -1.2843
N       -1.5177  -0.1029  1.3177
N       1.4933  0.1306  -1.3844
N       1.5586  -0.1161  1.4179
C       -2.7417  0.3977  -0.6023
C       -2.7910  -0.4175  0.6425
C       2.7418  0.3932  -0.6115
C       2.7910  -0.4125  0.6518
H       -0.9673  1.0050  -1.6826
H       -2.7898  1.4417  -0.3304
H       -3.5660  0.1751  -1.2541
H       -3.6441  -0.1304  1.2326
H       -2.8682  -1.4655  0.4100
H       -1.3260  0.7740  1.8207
H       -1.0416  -0.9015  1.8142
H       1.3424  -0.6613  -2.0282
H       1.0495  1.0366  -1.7737
H       3.6115  0.1657  -1.2087
H       2.7763  1.4371  -0.3446
H       2.8548  -1.4606  0.4243
H       3.6851  -0.1206  1.1917
H       1.1279  -0.9325  1.9054
H       1.3804  0.7519  1.9410
H       -1.2832  -0.6817  -1.9079
