27

Co      0.0000  0.0488  0.0034
Cl      0.0002  -2.2787  -0.2176
Cl      -0.0001  2.2115  0.2109
N       -1.4343  0.1768  -1.3173
N       -1.5128  -0.1870  1.3942
N       1.5128  0.1767  -1.3908
N       1.4342  -0.1865  1.3206
C       -2.6804  0.4084  -0.6818
C       -2.7297  -0.4224  0.6981
C       2.7295  0.4231  -0.7016
C       2.6806  -0.4072  0.6787
H       -1.2996  0.8028  -2.1027
H       -2.7223  1.4688  -0.4714
H       -3.4909  0.1754  -1.3518
H       -3.5793  -0.1712  1.3093
H       -2.7721  -1.4828  0.4957
H       -1.5402  0.7386  1.7927
H       -1.3612  -0.8510  2.1346
H       1.5135  -0.8032  -1.7045
H       1.3980  0.7828  -2.2016
H       3.5793  0.1696  -1.3156
H       2.7687  1.4835  -0.5064
H       2.7204  -1.4677  0.4620
H       3.4909  -0.1846  1.3516
H       1.2585  -0.8699  2.0274
H       1.4417  0.7246  1.7482
H       -1.4153  -0.7882  -1.6607
