27

Co      0.0000  -0.0488  -0.0034
Cl      0.0002  -2.2558  -0.2125
Cl      -0.0001  2.3232  0.2194
N       -1.4733  0.1524  -1.3481
N       -1.4732  -0.1425  1.3446
N       1.4733  0.1524  -1.3480
N       1.4732  -0.1420  1.3447
C       -2.7664  0.4052  -0.6381
C       -2.7666  -0.4045  0.6414
C       2.7664  0.4051  -0.6382
C       2.7666  -0.4040  0.6417
H       -1.2796  0.9278  -1.9542
H       -2.8173  1.4599  -0.4246
H       -3.6013  0.1433  -1.2660
H       -3.6013  -0.1355  1.2695
H       -2.8180  -1.4591  0.4347
H       -1.5137  0.7410  1.8201
H       -1.3170  -0.8610  2.0245
H       1.5408  -0.6776  -1.9069
H       1.2798  0.9275  -1.9545
H       3.6013  0.1429  -1.2661
H       2.8174  1.4599  -0.4252
H       2.8183  -1.4588  0.4354
H       3.6012  -0.1346  1.2697
H       1.3169  -0.8602  2.0248
H       1.5134  0.7417  1.8197
H       -1.5408  -0.6774  -1.9073
