27

Co      0.0000  0.0488  0.0034
Cl      0.0002  -2.3179  -0.2229
Cl      -0.0001  2.2506  0.2163
N       -1.4060  0.1690  -1.3709
N       -1.4060  -0.1792  1.3741
N       1.4060  0.1689  -1.3708
N       1.4060  -0.1787  1.3742
C       -2.7051  0.3812  -0.6416
C       -2.7054  -0.3805  0.6382
C       2.7052  0.3811  -0.6417
C       2.7054  -0.3800  0.6384
H       -1.4002  0.8035  -2.1853
H       -2.6734  1.4359  -0.4022
H       -3.5821  0.1892  -1.2427
H       -3.5821  -0.1948  1.2395
H       -2.6740  -1.4351  0.3921
H       -1.3441  0.7552  1.7741
H       -1.3636  -0.8714  2.1142
H       1.3174  -0.8198  -1.6858
H       1.4004  0.8032  -2.1812
H       3.5821  0.1932  -1.2428
H       2.6735  1.4359  -0.4028
H       2.6743  -1.4348  0.3928
H       3.5820  -0.1984  1.2396
H       1.3591  -0.8706  2.1101
H       1.3438  0.7560  1.7737
H       -1.3174  -0.8196  -1.6862
