27

Co      -0.0741  0.0000  0.0000
Cl      0.0068  -2.2540  -0.2181
Cl      0.0064  2.2541  0.2182
N       -1.5255  0.1143  -1.2981
N       -1.5255  -0.1144  1.2980
N       1.5927  0.1283  -1.3426
N       1.5926  -0.1280  1.3426
C       -2.7209  0.4396  -0.6004
C       -2.7211  -0.4389  0.6003
C       2.7765  0.4416  -0.5998
C       2.7767  -0.4405  0.5999
H       -1.2544  0.8167  -1.9702
H       -2.8718  1.4934  -0.3995
H       -3.5428  0.0855  -1.2051
H       -3.5427  -0.0844  1.2052
H       -2.8724  -1.4899  0.3995
H       -1.7115  0.7400  1.7977
H       -1.2549  -0.8173  1.9697
H       1.7966  -0.7375  -1.8364
H       1.3758  0.8226  -2.0336
H       3.6209  0.0867  -1.1826
H       2.9274  1.4888  -0.4012
H       2.9282  -1.4877  0.4013
H       3.6209  -0.0851  1.1827
H       1.3760  -0.8227  2.0332
H       1.7961  0.7376  1.8367
H       -1.7118  -0.7404  -1.7974
