27

Co      0.0000  0.0488  0.0034
Cl      0.0002  -2.3122  -0.2118
Cl      -0.0001  2.2449  0.2051
N       -1.3684  0.1687  -1.2944
N       -1.3684  -0.1789  1.2976
N       1.3684  0.1649  -1.2943
N       1.3684  -0.1747  1.2977
C       -2.8290  0.3627  -0.6848
C       -2.8292  -0.3620  0.6814
C       2.8291  0.3627  -0.6849
C       2.8292  -0.3616  0.6816
H       -1.5027  0.9145  -2.0298
H       -2.7478  1.4271  -0.5026
H       -3.6248  0.2070  -1.4137
H       -3.6202  -0.2126  1.4150
H       -2.7484  -1.4292  0.4925
H       -1.5288  0.5961  1.9457
H       -1.4661  -0.9823  1.9586
H       1.5103  -0.6607  -1.8537
H       1.5029  0.9104  -2.0338
H       3.6247  0.2104  -1.4138
H       2.7441  1.4337  -0.4994
H       2.7450  -1.4326  0.4894
H       3.6247  -0.2155  1.4106
H       1.4661  -0.9778  1.9627
H       1.5367  0.5969  1.9416
H       -1.5066  -0.6605  -1.8579
