27

Co      0.0000  0.0000  0.0000
Cl      0.0002  -2.2503  -0.2106
Cl      -0.0001  2.2503  0.2107
N       -1.5595  0.1541  -1.3377
N       -1.5595  -0.1542  1.3376
N       1.5595  0.1540  -1.3377
N       1.5595  -0.1537  1.3377
C       -2.7609  0.3892  -0.6060
C       -2.7611  -0.3885  0.6060
C       2.7609  0.3892  -0.6062
C       2.7611  -0.3881  0.6062
H       -1.1867  0.9191  -1.9024
H       -2.9145  1.4380  -0.3836
H       -3.6259  0.0354  -1.1547
H       -3.6304  -0.0343  1.1503
H       -2.9151  -1.4345  0.3836
H       -1.3727  0.7556  1.7856
H       -1.1872  -0.9197  1.9019
H       1.3684  -0.7562  -1.7849
H       1.1869  0.9188  -1.9026
H       3.6258  0.0350  -1.1548
H       2.9146  1.4352  -0.3842
H       2.9154  -1.4341  0.3843
H       3.6258  -0.0335  1.1550
H       1.1871  -0.9189  1.9023
H       1.3679  0.7563  1.7852
H       -1.3684  -0.7560  -1.7853
