27

Co      -0.0250  0.0061  -0.0389
Cl      0.0002  -2.3359  -0.2156
Cl      -0.0001  2.3318  0.2198
N       -1.5060  0.1173  -1.2939
N       -1.4929  -0.1133  1.2570
N       1.4684  0.1309  -1.3204
N       1.6124  -0.1265  1.4308
C       -2.7920  0.4334  -0.6362
C       -2.7922  -0.4385  0.6534
C       2.7430  0.4141  -0.6258
C       2.8413  -0.4482  0.6823
H       -1.0267  0.9287  -1.7879
H       -2.8965  1.4910  -0.4554
H       -3.6701  0.0842  -1.1732
H       -3.6553  -0.0561  1.1922
H       -2.9258  -1.5000  0.4906
H       -1.5746  0.6787  1.8737
H       -0.9657  -0.9121  1.7457
H       1.5686  -0.6299  -1.9937
H       1.0106  0.9799  -1.7759
H       3.6272  0.0846  -1.1671
H       2.8339  1.4717  -0.4353
H       2.9615  -1.5099  0.5392
H       3.7891  -0.0364  1.1075
H       1.1502  -0.9235  1.9400
H       1.7317  0.6713  2.0382
H       -1.6076  -0.6651  -1.9176
