27

Co      0.0000  0.0488  0.0034
Cl      0.0002  -2.3623  -0.2246
Cl      -0.0001  2.2950  0.2180
N       -1.4438  0.1470  -1.3251
N       -1.4438  -0.1572  1.3283
N       1.4438  0.1469  -1.3250
N       1.4438  -0.1568  1.3284
C       -2.7124  0.3958  -0.6956
C       -2.7126  -0.3951  0.6922
C       2.7125  0.3958  -0.6957
C       2.7126  -0.3947  0.6924
H       -1.4871  0.8525  -2.0781
H       -2.6572  1.4649  -0.5181
H       -3.5398  0.2308  -1.3750
H       -3.5353  -0.2364  1.3763
H       -2.6578  -1.4642  0.5080
H       -1.7146  0.6162  1.9603
H       -1.4505  -0.9203  2.0069
H       1.6925  -0.6808  -1.8720
H       1.4873  0.8522  -2.0783
H       3.5398  0.2304  -1.3780
H       2.6544  1.4650  -0.5187
H       2.6553  -1.4639  0.5086
H       3.5397  -0.2355  1.3747
H       1.4505  -0.9195  2.0073
H       1.7189  0.6169  1.9599
H       -1.6925  -0.6805  -1.8724
