27

Co      0.0490  0.0000  0.0000
Cl      -0.0063  -2.2785  -0.2084
Cl      -0.0067  2.2786  0.2085
N       -1.4183  0.1706  -1.2514
N       -1.4183  -0.1707  1.2513
N       1.3921  0.1701  -1.3069
N       1.3921  -0.1698  1.3069
C       -2.8072  0.3752  -0.6572
C       -2.8074  -0.3745  0.6572
C       2.7517  0.3687  -0.6671
C       2.7519  -0.3676  0.6672
H       -1.4737  0.9231  -1.9591
H       -2.8855  1.4424  -0.5198
H       -3.5708  0.0714  -1.3647
H       -3.5663  -0.0703  1.3694
H       -2.8861  -1.4417  0.5198
H       -1.6835  0.6165  1.8683
H       -1.4742  -0.9236  1.9586
H       1.6625  -0.5975  -1.9488
H       1.4347  0.9485  -1.9827
H       3.5381  0.0650  -1.3419
H       2.8164  1.4396  -0.5330
H       2.8173  -1.4385  0.5330
H       3.5381  -0.0634  1.3421
H       1.4349  -0.9485  1.9823
H       1.6620  0.5976  1.9492
H       -1.6882  -0.6169  -1.8680
