27

Co      -0.0490  0.0000  0.0000
Cl      0.0068  -2.2540  -0.2181
Cl      0.0064  2.2541  0.2182
N       -1.5178  0.1183  -1.3651
N       -1.5178  -0.1184  1.3650
N       1.5440  0.1187  -1.3094
N       1.5440  -0.1184  1.3095
C       -2.7575  0.4627  -0.6303
C       -2.7577  -0.4620  0.6302
C       2.8131  0.4692  -0.6206
C       2.8133  -0.4681  0.6207
H       -1.2391  0.8214  -2.0304
H       -2.8593  1.5137  -0.4148
H       -3.5796  0.1537  -1.2584
H       -3.5796  -0.1526  1.2585
H       -2.8600  -1.5129  0.4148
H       -1.7130  0.7371  1.8676
H       -1.2395  -0.8219  2.0299
H       1.7389  -0.7573  -1.7856
H       1.2785  0.7954  -2.0072
H       3.6123  0.1593  -1.2814
H       2.9286  1.5165  -0.4028
H       2.9294  -1.5154  0.4029
H       3.6122  -0.1578  1.2815
H       1.2787  -0.7955  2.0069
H       1.7384  0.7574  1.7860
H       -1.7132  -0.7374  -1.8673
