27

Co      -0.0741  -0.0427  -0.0422
Cl      0.0068  -2.2616  -0.2180
Cl      0.0064  2.3249  0.2289
N       -1.5340  0.0872  -1.3283
N       -1.5209  -0.0731  1.2880
N       1.5226  0.1012  -1.2991
N       1.6665  -0.0867  1.4062
C       -2.6852  0.4373  -0.5773
C       -2.6854  -0.4423  0.5978
C       2.6917  0.4245  -0.5571
C       2.7900  -0.4586  0.6170
H       -0.9817  0.9284  -1.7634
H       -2.8192  1.4803  -0.3225
H       -3.5423  0.1188  -1.1455
H       -3.5321  -0.0840  1.1633
H       -2.8485  -1.4866  0.3677
H       -1.4606  0.7916  1.7975
H       -0.9578  -0.8444  1.7918
H       1.5027  -0.6985  -1.9237
H       1.0049  0.9539  -1.7281
H       3.5322  0.1253  -1.1623
H       2.8257  1.4610  -0.2898
H       2.9534  -1.4992  0.4038
H       3.6941  -0.0704  1.1061
H       1.1815  -0.8302  1.9629
H       1.6389  0.8039  1.8807
H       -1.5160  -0.7141  -1.9289
