27

Co      0.0250  0.0427  0.0422
Cl      0.0002  -2.3087  -0.2250
Cl      -0.0001  2.2455  0.2142
N       -1.4115  0.1336  -1.3363
N       -1.4246  -0.1480  1.3764
N       1.4491  0.1199  -1.3097
N       1.3050  -0.1338  1.2026
C       -2.7014  0.4099  -0.6498
C       -2.7016  -0.4034  0.6292
C       2.7505  0.4291  -0.6605
C       2.6525  -0.3928  0.6007
H       -1.2422  0.8365  -2.0256
H       -2.7527  1.4666  -0.4474
H       -3.5375  0.1350  -1.2685
H       -3.5522  -0.1676  1.2465
H       -2.7248  -1.4561  0.4022
H       -1.5112  0.6852  1.9315
H       -1.2670  -0.9215  1.9962
H       1.4907  -0.7991  -1.7226
H       1.2586  0.7847  -2.0425
H       3.5803  0.1294  -1.2749
H       2.8156  1.4859  -0.4688
H       2.6896  -1.4455  0.3548
H       3.4183  -0.1812  1.3314
H       1.0868  -0.9085  1.8070
H       1.3535  0.6940  1.7663
H       -1.4518  -0.7634  -1.7994
