27

Co      0.0000  -0.0488  -0.0034
Cl      0.0002  -2.2610  -0.2089
Cl      -0.0001  2.3284  0.2157
N       -1.5274  0.1611  -1.3308
N       -1.5274  -0.1511  1.3273
N       1.5275  0.1610  -1.3307
N       1.5274  -0.1507  1.3274
C       -2.8361  0.4035  -0.6381
C       -2.8364  -0.4028  0.6414
C       2.8362  0.4034  -0.6382
C       2.8364  -0.4023  0.6417
H       -1.3355  0.9400  -1.9352
H       -2.9062  1.4582  -0.4315
H       -3.6590  0.1243  -1.2798
H       -3.6590  -0.1165  1.2833
H       -2.9068  -1.4574  0.4416
H       -1.5627  0.7288  1.8080
H       -1.3730  -0.8732  2.0055
H       1.5899  -0.6655  -1.8948
H       1.3357  0.9397  -1.9355
H       3.6590  0.1239  -1.2799
H       2.9063  1.4582  -0.4321
H       2.9071  -1.4571  0.4423
H       3.6589  -0.1156  1.2835
H       1.3729  -0.8724  2.0058
H       1.5624  0.7295  1.8076
H       -1.5899  -0.6652  -1.8952
