27

Co      0.0000  0.0061  -0.0389
Cl      0.0002  -2.2595  -0.2085
Cl      -0.0001  2.2555  0.2127
N       -1.5433  0.1301  -1.3543
N       -1.6087  -0.1262  1.3910
N       1.5433  0.1301  -1.3543
N       1.6087  -0.1257  1.3911
C       -2.7275  0.3978  -0.6104
C       -2.7768  -0.4175  0.6472
C       2.7276  0.3977  -0.6105
C       2.7768  -0.4171  0.6474
H       -1.1118  0.9834  -1.8117
H       -2.8507  1.4581  -0.4380
H       -3.6626  0.0295  -1.0610
H       -3.7361  0.0084  1.0407
H       -2.9291  -1.4791  0.5076
H       -1.7193  0.6533  2.0256
H       -1.1490  -0.9471  1.8725
H       1.6541  -0.6274  -2.0249
H       1.1119  0.9831  -1.8163
H       3.6625  0.0247  -1.0612
H       2.8508  1.4553  -0.4387
H       2.9293  -1.4787  0.5082
H       3.7361  0.0137  1.0409
H       1.1533  -0.9463  1.8773
H       1.7190  0.6540  2.0253
H       -1.6541  -0.6251  -2.0253
