27

Co      0.0000  -0.0061  0.0389
Cl      0.0002  -2.3266  -0.2233
Cl      -0.0001  2.3307  0.2193
N       -1.3805  0.1386  -1.3367
N       -1.3936  -0.1428  1.3734
N       1.4590  0.1386  -1.4102
N       1.3150  -0.1424  1.2998
C       -2.7719  0.4240  -0.6821
C       -2.7721  -0.4176  0.6649
C       2.8210  0.4387  -0.7018
C       2.7230  -0.4024  0.6455
H       -1.3787  0.8605  -2.0559
H       -2.7345  1.4867  -0.4933
H       -3.5694  0.2310  -1.3901
H       -3.5796  -0.2569  1.3759
H       -2.7065  -1.4789  0.4581
H       -1.6980  0.6554  1.9642
H       -1.4406  -0.8783  2.0972
H       1.7682  -0.6826  -1.9635
H       1.4771  0.8406  -2.1592
H       3.6577  0.2208  -1.3509
H       2.7837  1.5042  -0.5283
H       2.6577  -1.4638  0.4244
H       3.4957  -0.2658  1.4108
H       1.3423  -0.8971  1.9944
H       1.6040  0.6414  1.9197
H       -1.6700  -0.6697  -1.9197
