27

Co      -0.0741  0.0061  -0.0389
Cl      0.0068  -2.2595  -0.2085
Cl      0.0064  2.2555  0.2127
N       -1.5262  0.1554  -1.3777
N       -1.5131  -0.1514  1.3408
N       1.5148  0.1657  -1.3486
N       1.6588  -0.1613  1.4590
C       -2.7328  0.3736  -0.6110
C       -2.7330  -0.3786  0.6281
C       2.7394  0.3608  -0.5908
C       2.8377  -0.3949  0.6473
H       -1.3853  0.9372  -1.9954
H       -2.8088  1.4291  -0.4115
H       -3.6091  0.0798  -1.1708
H       -3.5943  -0.0518  1.1898
H       -2.8381  -1.4353  0.4467
H       -1.5512  0.6894  1.8826
H       -1.3243  -0.9206  1.9532
H       1.5746  -0.6603  -1.9175
H       1.4085  0.9590  -1.9595
H       3.5989  0.0945  -1.1876
H       2.8116  1.4135  -0.3751
H       2.9392  -1.4517  0.4790
H       3.7608  -0.0463  1.1280
H       1.5436  -0.9026  2.1236
H       1.7377  0.7017  1.9620
H       -1.5842  -0.6758  -1.9264
