27

Co      0.0741  0.0000  0.0000
Cl      -0.0063  -2.2341  -0.2067
Cl      -0.0067  2.2342  0.2068
N       -1.4058  0.1742  -1.3439
N       -1.4058  -0.1743  1.3438
N       1.3387  0.1599  -1.2992
N       1.3387  -0.1597  1.2992
C       -2.8181  0.3748  -0.6744
C       -2.8184  -0.3741  0.6744
C       2.7626  0.3728  -0.6752
C       2.7628  -0.3717  0.6753
H       -1.3212  0.9509  -1.9766
H       -2.7763  1.4304  -0.4517
H       -3.6448  0.1979  -1.3499
H       -3.6448  -0.1968  1.3501
H       -2.7769  -1.4325  0.4517
H       -1.3279  0.6938  1.8632
H       -1.3216  -0.9515  1.9761
H       1.2433  -0.6976  -1.8231
H       1.2002  0.9444  -1.9137
H       3.5666  0.1960  -1.3727
H       2.7209  1.4350  -0.4512
H       2.7218  -1.4339  0.4513
H       3.5665  -0.1944  1.3729
H       1.2003  -0.9445  1.9133
H       1.2428  0.6977  1.8235
H       -1.3282  -0.6942  -1.8629
