27

Co      0.0250  -0.0061  0.0389
Cl      0.0002  -2.3194  -0.2233
Cl      -0.0001  2.3236  0.2193
N       -1.4223  0.1791  -1.3348
N       -1.4354  -0.1833  1.3716
N       1.4599  0.1654  -1.3083
N       1.3159  -0.1692  1.1978
C       -2.7441  0.3824  -0.6482
C       -2.7443  -0.3760  0.6310
C       2.7932  0.4017  -0.6589
C       2.6952  -0.3654  0.6025
H       -1.3871  0.8322  -2.1180
H       -2.7437  1.4392  -0.4219
H       -3.6016  0.1584  -1.2642
H       -3.6163  -0.1842  1.2456
H       -2.7157  -1.4286  0.3867
H       -1.3691  0.7764  1.7335
H       -1.4489  -0.8499  2.1593
H       1.3755  -0.8264  -1.6122
H       1.4036  0.7804  -2.1304
H       3.6444  0.1571  -1.2706
H       2.8065  1.4585  -0.4432
H       2.6806  -1.4181  0.3394
H       3.4824  -0.2022  1.3305
H       1.2643  -0.8369  1.9657
H       1.2114  0.7852  1.5684
H       -1.3366  -0.7907  -1.6890
