27

Co      0.0000  0.0488  0.0034
Cl      0.0002  -2.3159  -0.2193
Cl      -0.0001  2.2487  0.2126
N       -1.4387  0.1729  -1.2961
N       -1.4387  -0.1831  1.2994
N       1.4387  0.1728  -1.2961
N       1.4386  -0.1826  1.2995
C       -2.7797  0.3818  -0.6368
C       -2.7799  -0.3811  0.6334
C       2.7798  0.3818  -0.6369
C       2.7799  -0.3807  0.6336
H       -1.4274  0.7965  -2.1257
H       -2.7790  1.4365  -0.4043
H       -3.6183  0.1654  -1.2828
H       -3.6182  -0.1711  1.2796
H       -2.7796  -1.4358  0.3942
H       -1.3668  0.7574  1.6902
H       -1.3908  -0.8644  2.0545
H       1.3401  -0.8220  -1.6020
H       1.4276  0.7962  -2.1215
H       3.6182  0.1695  -1.2830
H       2.7791  1.4366  -0.4049
H       2.7799  -1.4355  0.3949
H       3.6182  -0.1746  1.2798
H       1.3863  -0.8636  2.0505
H       1.3666  0.7581  1.6899
H       -1.3402  -0.8218  -1.6023
