27

Co      0.0490  0.0488  0.0034
Cl      -0.0063  -2.3179  -0.2229
Cl      -0.0067  2.2506  0.2163
N       -1.4511  0.1357  -1.3228
N       -1.4510  -0.1460  1.3260
N       1.4249  0.1389  -1.3783
N       1.4249  -0.1488  1.3817
C       -2.7015  0.4053  -0.6726
C       -2.7017  -0.4046  0.6692
C       2.6460  0.3987  -0.6825
C       2.6461  -0.3976  0.6793
H       -1.4286  0.8490  -2.0412
H       -2.7071  1.4609  -0.4460
H       -3.4401  0.2448  -1.4666
H       -3.4401  -0.2504  1.4634
H       -2.7077  -1.4601  0.4359
H       -1.5704  0.6690  1.9037
H       -1.3920  -0.9169  1.9700
H       1.5143  -0.7140  -1.9004
H       1.3896  0.8781  -2.0611
H       3.4074  0.2346  -1.4467
H       2.6390  1.4543  -0.4630
H       2.6398  -1.4532  0.4529
H       3.4073  -0.2398  1.4435
H       1.3527  -0.9455  1.9900
H       1.5407  0.6501  1.9884
H       -1.5437  -0.7333  -1.8158
