27

Co      0.0250  -0.0061  0.0389
Cl      0.0002  -2.2874  -0.2180
Cl      -0.0001  2.2916  0.2140
N       -1.4741  0.1875  -1.3869
N       -1.4872  -0.1917  1.4236
N       1.5117  0.1737  -1.3603
N       1.3677  -0.1775  1.2499
C       -2.7749  0.3800  -0.6530
C       -2.7751  -0.3736  0.6358
C       2.8241  0.3993  -0.6637
C       2.7260  -0.3630  0.6073
H       -1.4479  0.8567  -2.1534
H       -2.7697  1.4368  -0.4285
H       -3.6552  0.1578  -1.2415
H       -3.6699  -0.1837  1.2228
H       -2.7417  -1.4263  0.3933
H       -1.4257  0.7567  1.8017
H       -1.5097  -0.8744  2.1946
H       1.4321  -0.8067  -1.6804
H       1.4643  0.8049  -2.1658
H       3.6980  0.1566  -1.2479
H       2.8326  1.4561  -0.4498
H       2.7066  -1.4157  0.3459
H       3.5359  -0.2016  1.3077
H       1.3251  -0.8614  2.0010
H       1.2680  0.7655  1.6366
H       -1.3932  -0.7710  -1.7572
