27

Co      0.0000  0.0000  0.0000
Cl      0.0002  -2.3338  -0.2176
Cl      -0.0001  2.3339  0.2177
N       -1.5069  0.1574  -1.3344
N       -1.5068  -0.1575  1.3343
N       1.5069  0.1573  -1.3344
N       1.5068  -0.1570  1.3344
C       -2.8005  0.4083  -0.6495
C       -2.8007  -0.4076  0.6494
C       2.8006  0.4083  -0.6496
C       2.8007  -0.4072  0.6497
H       -1.1765  0.8913  -1.9517
H       -2.8489  1.4679  -0.4542
H       -3.7239  0.1020  -1.1470
H       -3.7239  -0.1009  1.1471
H       -2.8495  -1.4671  0.4542
H       -1.4732  0.7264  1.8117
H       -1.1769  -0.8918  1.9512
H       1.4734  -0.7270  -1.8109
H       1.1767  0.8910  -1.9519
H       3.7239  0.1017  -1.1471
H       2.8490  1.4679  -0.4548
H       2.8498  -1.4668  0.4548
H       3.7238  -0.1001  1.1473
H       1.1768  -0.8910  1.9516
H       1.4729  0.7271  1.8113
H       -1.4734  -0.7268  -1.8113
