27

Co      -0.0250  0.0061  -0.0389
Cl      0.0002  -2.3396  -0.2231
Cl      -0.0001  2.3356  0.2273
N       -1.4385  0.0782  -1.2648
N       -1.5039  -0.0742  1.3015
N       1.4795  0.0955  -1.3649
N       1.5449  -0.0911  1.4017
C       -2.7995  0.4129  -0.5479
C       -2.8488  -0.4326  0.5847
C       2.7996  0.4083  -0.5571
C       2.8488  -0.4276  0.5940
H       -1.2216  0.8929  -1.8313
H       -2.7884  1.4561  -0.2705
H       -3.6267  0.2242  -1.2191
H       -3.7003  -0.1863  1.1988
H       -2.8667  -1.4799  0.3400
H       -1.6247  0.7367  1.8869
H       -1.2589  -0.8566  1.8922
H       1.6149  -0.6879  -2.0106
H       1.3038  0.9282  -1.9188
H       3.6722  0.2110  -1.1709
H       2.7814  1.4478  -0.2885
H       2.8599  -1.4712  0.3580
H       3.7457  -0.1727  1.1506
H       1.3451  -0.8915  1.9798
H       1.6799  0.7146  2.0110
H       -1.5595  -0.7084  -1.8866
