27

Co      0.0000  0.0000  0.0000
Cl      0.0002  -2.2823  -0.2159
Cl      -0.0001  2.2823  0.2160
N       -1.4105  0.1751  -1.3147
N       -1.4105  -0.1752  1.3146
N       1.4105  0.1750  -1.3147
N       1.4105  -0.1747  1.3147
C       -2.8163  0.4072  -0.6604
C       -2.8165  -0.4065  0.6604
C       2.8164  0.4072  -0.6606
C       2.8165  -0.4061  0.6606
H       -1.3526  0.8189  -2.1072
H       -2.7733  1.4591  -0.4077
H       -3.6323  0.2392  -1.3572
H       -3.6323  -0.2381  1.3573
H       -2.7740  -1.4612  0.4077
H       -1.3252  0.7979  1.6549
H       -1.3530  -0.8195  2.1068
H       1.3254  -0.7985  -1.6542
H       1.3528  0.8186  -2.1030
H       3.6323  0.2432  -1.3573
H       2.7734  1.4619  -0.4083
H       2.7743  -1.4608  0.4084
H       3.6322  -0.2417  1.3575
H       1.3485  -0.8187  2.1027
H       1.3249  0.7986  1.6545
H       -1.3255  -0.7982  -1.6546
