27

Co      0.0000  0.0000  0.0000
Cl      0.0002  -2.3286  -0.2213
Cl      -0.0001  2.3287  0.2214
N       -1.4152  0.1435  -1.3382
N       -1.4152  -0.1436  1.3381
N       1.4152  0.1434  -1.3381
N       1.4152  -0.1431  1.3381
C       -2.7353  0.3958  -0.6482
C       -2.7355  -0.3951  0.6481
C       2.7353  0.3958  -0.6483
C       2.7355  -0.3947  0.6484
H       -1.4658  0.8804  -2.0599
H       -2.7258  1.4592  -0.4673
H       -3.5627  0.1741  -1.3046
H       -3.5581  -0.1730  1.3093
H       -2.7265  -1.4585  0.4673
H       -1.7098  0.6539  1.9337
H       -1.4662  -0.8809  2.0594
H       1.7145  -0.6545  -1.9329
H       1.4660  0.8801  -2.0601
H       3.5627  0.1737  -1.3048
H       2.7259  1.4592  -0.4679
H       2.7268  -1.4581  0.4679
H       3.5626  -0.1721  1.3049
H       1.4661  -0.8802  2.0598
H       1.7140  0.6546  1.9333
H       -1.7145  -0.6543  -1.9333
