27

Co      0.0000  0.0000  0.0000
Cl      0.0002  -2.2946  -0.2123
Cl      -0.0001  2.2947  0.2124
N       -1.5512  0.1122  -1.3685
N       -1.4726  -0.1123  1.2948
N       1.4726  0.1121  -1.2948
N       1.5511  -0.1118  1.3685
C       -2.8750  0.4365  -0.6037
C       -2.8262  -0.4211  0.5841
C       2.8260  0.4218  -0.5842
C       2.8753  -0.4354  0.6039
H       -1.2607  0.9355  -1.8979
H       -3.0545  1.4855  -0.4336
H       -3.6876  0.0223  -1.2061
H       -3.5992  -0.0311  1.2455
H       -3.0061  -1.4701  0.3992
H       -1.6831  0.6291  1.9924
H       -1.1630  -0.9557  1.7943
H       1.6833  -0.6297  -1.9917
H       1.1628  0.9549  -1.7994
H       3.5992  0.0274  -1.2426
H       3.0084  1.4708  -0.3999
H       3.0583  -1.4844  0.4343
H       3.6875  -0.0160  1.2035
H       1.2655  -0.9353  1.9022
H       1.7810  0.6445  2.0363
H       -1.7816  -0.6442  -2.0363
