27

Co      0.0000  0.0000  0.0000
Cl      0.0002  -2.3215  -0.2213
Cl      -0.0001  2.3215  0.2214
N       -1.3802  0.1715  -1.3201
N       -1.3802  -0.1716  1.3200
N       1.3802  0.1714  -1.3200
N       1.3802  -0.1712  1.3200
C       -2.7807  0.4072  -0.6604
C       -2.7809  -0.4065  0.6604
C       2.7807  0.4072  -0.6606
C       2.7809  -0.4061  0.6606
H       -1.3205  0.8136  -2.1126
H       -2.7306  1.4591  -0.4059
H       -3.6003  0.2445  -1.3536
H       -3.6002  -0.2434  1.3538
H       -2.7312  -1.4612  0.4059
H       -1.2949  0.8032  1.6584
H       -1.3209  -0.8141  2.1121
H       1.2952  -0.8038  -1.6577
H       1.3207  0.8133  -2.1084
H       3.6002  0.2486  -1.3538
H       2.7307  1.4619  -0.4066
H       2.7315  -1.4608  0.4066
H       3.6002  -0.2470  1.3539
H       1.3164  -0.8134  2.1080
H       1.2947  0.8039  1.6581
H       -1.2952  -0.8036  -1.6581
