27

Co      0.0000  0.0000  0.0000
Cl      0.0002  -2.2503  -0.2106
Cl      -0.0001  2.2503  0.2107
N       -1.5837  0.1160  -1.3826
N       -1.5051  -0.1161  1.3088
N       1.5051  0.1159  -1.3089
N       1.5836  -0.1156  1.3825
C       -2.8135  0.4476  -0.6411
C       -2.7646  -0.4322  0.6214
C       2.7645  0.4329  -0.6216
C       2.8137  -0.4465  0.6413
H       -1.0400  0.9428  -1.8294
H       -2.9885  1.4936  -0.4349
H       -3.6457  0.0673  -1.2240
H       -3.5618  -0.0760  1.2589
H       -2.9401  -1.4782  0.4005
H       -1.4428  0.6906  1.9176
H       -0.9422  -0.9630  1.7258
H       1.4386  -0.6912  -1.9169
H       0.9420  0.9622  -1.7310
H       3.5573  0.0723  -1.2634
H       2.9395  1.4789  -0.4011
H       2.9895  -1.4925  0.4355
H       3.6456  -0.0609  1.2243
H       1.0447  -0.9426  1.8337
H       1.5362  0.7061  1.9614
H       -1.5368  -0.7057  -1.9614
