27

Co      0.0000  -0.0061  0.0389
Cl      0.0002  -2.3194  -0.2233
Cl      -0.0001  2.3236  0.2193
N       -1.3867  0.1342  -1.2928
N       -1.3998  -0.1384  1.3295
N       1.4653  0.1341  -1.3664
N       1.3213  -0.1379  1.2559
C       -2.7721  0.4358  -0.6689
C       -2.7724  -0.4293  0.6517
C       2.8213  0.4505  -0.6887
C       2.7233  -0.4142  0.6323
H       -1.1503  0.8498  -1.9503
H       -2.8000  1.4897  -0.4491
H       -3.5544  0.1974  -1.3759
H       -3.5692  -0.2233  1.3572
H       -2.7720  -1.4820  0.4140
H       -1.4587  0.7302  1.8262
H       -1.2121  -0.8675  1.9915
H       1.5244  -0.7574  -1.8255
H       1.2487  0.8299  -2.0536
H       3.6428  0.1872  -1.3368
H       2.8492  1.5073  -0.4841
H       2.7232  -1.4669  0.3803
H       3.4807  -0.2323  1.3966
H       1.1138  -0.8864  1.8888
H       1.3603  0.7162  1.7817
H       -1.4262  -0.7444  -1.7817
