27

Co      0.0000  0.0000  0.0000
Cl      0.0002  -2.2823  -0.2159
Cl      -0.0001  2.2823  0.2160
N       -1.3924  0.1796  -1.3012
N       -1.3924  -0.1797  1.3011
N       1.3924  0.1795  -1.3011
N       1.3924  -0.1792  1.3011
C       -2.8208  0.4027  -0.6785
C       -2.8211  -0.4020  0.6785
C       2.8209  0.4026  -0.6786
C       2.8210  -0.4015  0.6787
H       -1.4068  0.8009  -2.1479
H       -2.7100  1.4681  -0.4665
H       -3.7228  0.2437  -1.2668
H       -3.7182  -0.2426  1.2714
H       -2.7107  -1.4702  0.4665
H       -1.4654  0.7617  1.6775
H       -1.4073  -0.8014  2.1474
H       1.4701  -0.7623  -1.6768
H       1.4070  0.8006  -2.1437
H       3.7227  0.2478  -1.2669
H       2.7101  1.4710  -0.4671
H       2.7110  -1.4699  0.4672
H       3.7227  -0.2462  1.2670
H       1.4028  -0.8006  2.1434
H       1.4696  0.7624  1.6772
H       -1.4702  -0.7620  -1.6772
