27

Co      -0.0741  -0.0427  -0.0422
Cl      0.0068  -2.2688  -0.2180
Cl      0.0064  2.3321  0.2289
N       -1.5233  0.1226  -1.3810
N       -1.5102  -0.1085  1.3407
N       1.5119  0.1366  -1.3519
N       1.6558  -0.1222  1.4589
C       -2.6805  0.4344  -0.5949
C       -2.6807  -0.4394  0.6154
C       2.6870  0.4216  -0.5747
C       2.7854  -0.4557  0.6345
H       -1.2633  0.8728  -2.0018
H       -2.7980  1.4861  -0.3799
H       -3.5396  0.1125  -1.1641
H       -3.5248  -0.0777  1.1864
H       -2.8273  -1.4924  0.4252
H       -1.6777  0.7699  1.8072
H       -1.2394  -0.7888  2.0302
H       1.7243  -0.6769  -1.9334
H       1.2865  0.8983  -1.9620
H       3.5294  0.1235  -1.1809
H       2.8045  1.4668  -0.3472
H       2.9321  -1.5050  0.4612
H       3.6913  -0.0685  1.1247
H       1.4586  -0.7746  2.1968
H       1.8605  0.7822  1.8904
H       -1.7377  -0.6924  -1.9386
