27

Co      0.0000  0.0000  0.0000
Cl      0.0002  -2.2503  -0.2106
Cl      -0.0001  2.2503  0.2107
N       -1.5725  0.1188  -1.3289
N       -1.5725  -0.1189  1.3288
N       1.5726  0.1187  -1.3288
N       1.5725  -0.1184  1.3288
C       -2.7523  0.4149  -0.6059
C       -2.7526  -0.4142  0.6059
C       2.7524  0.4149  -0.6061
C       2.7525  -0.4138  0.6061
H       -1.0472  0.9639  -1.7610
H       -2.9696  1.4637  -0.4092
H       -3.5874  0.0018  -1.1676
H       -3.5919  -0.0007  1.1632
H       -2.9703  -1.4602  0.4092
H       -1.5201  0.6895  1.9312
H       -1.0476  -0.9645  1.7605
H       1.5158  -0.6902  -1.9305
H       1.0474  0.9636  -1.7656
H       3.5874  -0.0030  -1.1677
H       2.9697  1.4609  -0.4099
H       2.9705  -1.4598  0.4099
H       3.5873  0.0046  1.1679
H       1.0520  -0.9637  1.7653
H       1.5153  0.6903  1.9309
H       -1.5158  -0.6899  -1.9309
