27

Co      0.0000  0.0000  0.0000
Cl      0.0002  -2.2771  -0.2195
Cl      -0.0001  2.2771  0.2196
N       -1.3795  0.1384  -1.2927
N       -1.3794  -0.1386  1.2926
N       1.3795  0.1384  -1.2926
N       1.3794  -0.1381  1.2927
C       -2.7059  0.4047  -0.6531
C       -2.7061  -0.4040  0.6530
C       2.7060  0.4047  -0.6532
C       2.7061  -0.4036  0.6533
H       -1.2677  0.8447  -2.0086
H       -2.6819  1.4730  -0.4768
H       -3.6126  0.1587  -1.1898
H       -3.6080  -0.1576  1.1944
H       -2.6826  -1.4723  0.4768
H       -1.5919  0.6993  1.8268
H       -1.2681  -0.8453  2.0081
H       1.5967  -0.7000  -1.8261
H       1.2679  0.8444  -2.0088
H       3.6125  0.1583  -1.1899
H       2.6820  1.4730  -0.4774
H       2.6829  -1.4719  0.4774
H       3.6125  -0.1567  1.1901
H       1.2680  -0.8445  2.0085
H       1.5962  0.7001  1.8264
H       -1.5967  -0.6997  -1.8265
