27

Co      -0.0250  0.0000  0.0000
Cl      0.0002  -2.2574  -0.2106
Cl      -0.0001  2.2575  0.2107
N       -1.5692  0.1477  -1.3451
N       -1.5692  -0.1478  1.3450
N       1.6102  0.1613  -1.4451
N       1.6101  -0.1610  1.4452
C       -2.7431  0.4236  -0.6106
C       -2.7433  -0.4229  0.6106
C       2.7432  0.4191  -0.6198
C       2.7433  -0.4180  0.6199
H       -1.0880  0.9007  -1.8912
H       -3.0039  1.4724  -0.4205
H       -3.5685  -0.0310  -1.1684
H       -3.5730  0.0321  1.1641
H       -3.0046  -1.4689  0.4205
H       -1.4947  0.7397  1.8132
H       -1.0885  -0.9013  1.8907
H       1.5496  -0.7175  -1.9331
H       1.1702  0.9323  -1.9779
H       3.6140  -0.0359  -1.1230
H       2.9904  1.4651  -0.4347
H       2.9912  -1.4640  0.4348
H       3.6139  0.0375  1.1232
H       1.1703  -0.9324  1.9776
H       1.5491  0.7176  1.9335
H       -1.4904  -0.7400  -1.8129
