27

Co      0.0000  -0.0061  0.0389
Cl      0.0002  -2.3266  -0.2233
Cl      -0.0001  2.3307  0.2193
N       -1.4086  0.1414  -1.3198
N       -1.4217  -0.1457  1.3565
N       1.4872  0.1414  -1.3933
N       1.3432  -0.1452  1.2829
C       -2.7353  0.3987  -0.6567
C       -2.7355  -0.3922  0.6396
C       2.7844  0.4134  -0.6765
C       2.6864  -0.3771  0.6201
H       -1.4351  0.8718  -2.0390
H       -2.7401  1.4641  -0.4848
H       -3.5553  0.1606  -1.3140
H       -3.5655  -0.1865  1.2999
H       -2.7122  -1.4536  0.4497
H       -1.7261  0.6470  1.9557
H       -1.4969  -0.8895  2.0803
H       1.7963  -0.6742  -1.9550
H       1.5335  0.8519  -2.1423
H       3.6437  0.1504  -1.2749
H       2.7893  1.4789  -0.5198
H       2.6634  -1.4385  0.4160
H       3.4816  -0.1954  1.3348
H       1.3986  -0.9084  1.9775
H       1.6322  0.6329  1.9112
H       -1.6982  -0.6612  -1.9112
