27

Co      0.0000  0.0000  0.0000
Cl      0.0002  -2.2451  -0.2142
Cl      -0.0001  2.2451  0.2143
N       -1.4683  0.1460  -1.3469
N       -1.4683  -0.1461  1.3468
N       1.4683  0.1459  -1.3468
N       1.4682  -0.1456  1.3469
C       -2.7093  0.4020  -0.6758
C       -2.7096  -0.4013  0.6758
C       2.7094  0.4020  -0.6760
C       2.7096  -0.4009  0.6760
H       -1.4225  0.9027  -2.0103
H       -2.7171  1.4576  -0.4509
H       -3.4558  0.2379  -1.4570
H       -3.4558  -0.2368  1.4572
H       -2.7178  -1.4569  0.4509
H       -1.5725  0.6858  1.8989
H       -1.4230  -0.9033  2.0098
H       1.5727  -0.6865  -1.8981
H       1.4227  0.9024  -2.0106
H       3.4558  0.2375  -1.4600
H       2.7144  1.4576  -0.4515
H       2.7152  -1.4565  0.4516
H       3.4558  -0.2360  1.4602
H       1.4229  -0.9025  2.0102
H       1.5722  0.6866  1.8985
H       -1.5728  -0.6862  -1.8985
