27

Co      0.0000  0.0488  0.0034
Cl      0.0002  -2.2787  -0.2176
Cl      -0.0001  2.2115  0.2109
N       -1.4363  0.1725  -1.3655
N       -1.4363  -0.1827  1.3688
N       1.4363  0.1724  -1.3654
N       1.4363  -0.1823  1.3688
C       -2.7408  0.3812  -0.6416
C       -2.7410  -0.3805  0.6382
C       2.7408  0.3811  -0.6417
C       2.7410  -0.3800  0.6384
H       -1.4322  0.8088  -2.1800
H       -2.7161  1.4359  -0.4040
H       -3.6142  0.1839  -1.2463
H       -3.6142  -0.1895  1.2430
H       -2.7168  -1.4351  0.3939
H       -1.3744  0.7499  1.7705
H       -1.3956  -0.8767  2.1088
H       1.3477  -0.8145  -1.6823
H       1.4324  0.8086  -2.1758
H       3.6142  0.1879  -1.2464
H       2.7162  1.4359  -0.4046
H       2.7171  -1.4348  0.3945
H       3.6141  -0.1931  1.2432
H       1.3911  -0.8759  2.1048
H       1.3741  0.7506  1.7702
H       -1.3477  -0.8142  -1.6827
