27

Co      0.0000  0.0000  0.0000
Cl      0.0002  -2.3249  -0.2138
Cl      -0.0001  2.3249  0.2139
N       -1.3683  0.1707  -1.3588
N       -1.3683  -0.1708  1.3587
N       1.3683  0.1668  -1.3588
N       1.3683  -0.1665  1.3588
C       -2.7756  0.3949  -0.6922
C       -2.7759  -0.3942  0.6922
C       2.7757  0.3949  -0.6924
C       2.7758  -0.3938  0.6924
H       -1.3944  0.9403  -2.0318
H       -2.7876  1.4593  -0.5394
H       -3.5580  0.1470  -1.3994
H       -3.5535  -0.1459  1.4041
H       -2.7883  -1.4614  0.5394
H       -1.6366  0.6062  1.9946
H       -1.3949  -0.9409  2.0313
H       1.6451  -0.6068  -1.9901
H       1.3946  0.9363  -2.0358
H       3.5580  0.1504  -1.3995
H       2.7840  1.4658  -0.5363
H       2.7848  -1.4647  0.5363
H       3.5580  -0.1488  1.3997
H       1.3948  -0.9363  2.0354
H       1.6446  0.6069  1.9905
H       -1.6414  -0.6065  -1.9942
