27

Co      0.0000  0.0000  0.0000
Cl      0.0002  -2.2857  -0.2084
Cl      -0.0001  2.2858  0.2085
N       -1.3507  0.1785  -1.3167
N       -1.4292  -0.1787  1.3902
N       1.4292  0.1747  -1.3902
N       1.3506  -0.1744  1.3166
C       -2.7997  0.3530  -0.6781
C       -2.8490  -0.3670  0.6977
C       2.8488  0.3677  -0.6979
C       2.7999  -0.3518  0.6783
H       -1.4638  0.9771  -1.9835
H       -2.7065  1.4173  -0.4851
H       -3.6021  0.2201  -1.4053
H       -3.6859  -0.2092  1.3707
H       -2.7562  -1.4342  0.5195
H       -1.5907  0.6211  1.9958
H       -1.5625  -0.9580  2.0862
H       1.5992  -0.6218  -1.9913
H       1.5622  0.9534  -2.0906
H       3.6904  0.2136  -1.3662
H       2.7519  1.4386  -0.5164
H       2.7037  -1.4228  0.4820
H       3.6020  -0.2219  1.4056
H       1.4642  -0.9731  1.9872
H       1.5005  0.6071  1.9475
H       -1.4973  -0.6068  -1.9513
