27

Co      -0.0490  0.0000  0.0000
Cl      0.0068  -2.3410  -0.2176
Cl      0.0064  2.3411  0.2177
N       -1.5235  0.1537  -1.4142
N       -1.5235  -0.1538  1.4141
N       1.5497  0.1503  -1.3586
N       1.5496  -0.1501  1.3586
C       -2.7412  0.4119  -0.5924
C       -2.7415  -0.4112  0.5923
C       2.7969  0.4184  -0.5827
C       2.7970  -0.4173  0.5828
H       -1.1526  0.9090  -1.9938
H       -2.9731  1.4685  -0.4518
H       -3.6817  -0.1020  -0.9818
H       -3.6817  0.1031  0.9820
H       -2.9738  -1.4650  0.4518
H       -1.6468  0.6865  1.9519
H       -1.1531  -0.9096  1.9933
H       1.6765  -0.7068  -1.8662
H       1.1921  0.8793  -1.9744
H       3.7144  -0.0926  -1.0020
H       3.0415  1.4723  -0.4361
H       3.0423  -1.4712  0.4361
H       3.7143  0.0942  1.0021
H       1.1922  -0.8794  1.9741
H       1.6760  0.7069  1.8666
H       -1.6471  -0.6869  -1.9516
