27

Co      -0.0490  0.0000  0.0000
Cl      0.0068  -2.2612  -0.2181
Cl      0.0064  2.2612  0.2182
N       -1.6259  0.1305  -1.4560
N       -1.5474  -0.1307  1.3823
N       1.5736  0.1309  -1.3267
N       1.6521  -0.1306  1.4004
C       -2.7491  0.4171  -0.6068
C       -2.7002  -0.4017  0.5872
C       2.7556  0.4089  -0.5775
C       2.8049  -0.4225  0.5972
H       -1.2599  0.8720  -2.0494
H       -2.8221  1.4622  -0.3501
H       -3.6940  0.1278  -1.0786
H       -3.6101  -0.1365  1.1135
H       -2.7737  -1.4439  0.3157
H       -1.3801  0.7803  1.8253
H       -1.1621  -0.8921  1.9458
H       1.4015  -0.8005  -1.7433
H       1.2011  0.8656  -1.9232
H       3.6383  0.1433  -1.1409
H       2.8423  1.4474  -0.3037
H       2.8922  -1.4611  0.3381
H       3.7266  -0.1319  1.1018
H       1.2995  -0.8461  2.0259
H       1.4992  0.8154  1.7879
H       -1.4740  -0.7954  -1.8692
