27

Co      0.0000  -0.0488  -0.0034
Cl      0.0002  -2.2558  -0.2125
Cl      -0.0001  2.3232  0.2194
N       -1.5010  0.1528  -1.3616
N       -1.5010  -0.1428  1.3582
N       1.5011  0.1527  -1.3616
N       1.5010  -0.1423  1.3582
C       -2.7618  0.4145  -0.6297
C       -2.7621  -0.4138  0.6330
C       2.7619  0.4145  -0.6298
C       2.7621  -0.4134  0.6333
H       -1.0798  0.9362  -1.8893
H       -2.8661  1.4605  -0.3852
H       -3.6079  0.1145  -1.2255
H       -3.6124  -0.1067  1.2245
H       -2.8667  -1.4598  0.3953
H       -1.3007  0.8014  1.7538
H       -1.1173  -0.8694  1.9595
H       1.3234  -0.7380  -1.8406
H       1.0800  0.9359  -1.8895
H       3.6079  0.1142  -1.2256
H       2.8662  1.4605  -0.3859
H       2.8670  -1.4594  0.3960
H       3.6078  -0.1058  1.2292
H       1.1172  -0.8686  1.9599
H       1.2960  0.8021  1.7535
H       -1.3234  -0.7378  -1.8410
