27

Co      -0.0741  -0.0427  -0.0422
Cl      0.0068  -2.2630  -0.2069
Cl      0.0064  2.3263  0.2178
N       -1.5004  0.1580  -1.3269
N       -1.4873  -0.1439  1.2866
N       1.4890  0.1683  -1.2978
N       1.6330  -0.1538  1.4049
C       -2.8084  0.3996  -0.6299
C       -2.8086  -0.4046  0.6504
C       2.8149  0.3868  -0.6096
C       2.9132  -0.4209  0.6695
H       -1.3056  0.9473  -1.9227
H       -2.8660  1.4523  -0.4153
H       -3.6273  0.1352  -1.2817
H       -3.6125  -0.1004  1.3041
H       -2.8953  -1.4614  0.4606
H       -1.5020  0.7373  1.7669
H       -1.2817  -0.8634  1.9511
H       1.5524  -0.6442  -1.8894
H       1.3288  0.9691  -1.8867
H       3.6171  0.1499  -1.2985
H       2.8688  1.4395  -0.3789
H       2.9964  -1.4777  0.4929
H       3.7790  -0.0949  1.2423
H       1.5010  -0.8454  2.1215
H       1.6886  0.7496  1.8464
H       -1.5620  -0.6598  -1.8983
