27

Co      -0.0741  -0.0427  -0.0422
Cl      0.0068  -2.2702  -0.2069
Cl      0.0064  2.3335  0.2178
N       -1.5497  0.1631  -1.3979
N       -1.5366  -0.1490  1.3576
N       1.5383  0.1734  -1.3688
N       1.6823  -0.1589  1.4759
C       -2.7990  0.4066  -0.6262
C       -2.7993  -0.4116  0.6468
C       2.8056  0.3938  -0.6060
C       2.9039  -0.4279  0.6659
H       -1.1346  0.9749  -1.8984
H       -2.8980  1.4505  -0.3807
H       -3.6554  0.1112  -1.2149
H       -3.6451  -0.0764  1.2327
H       -2.9273  -1.4596  0.4260
H       -1.3154  0.7834  1.7724
H       -1.1107  -0.8909  1.9269
H       1.3613  -0.6903  -1.8949
H       1.1578  0.9966  -1.8624
H       3.6452  0.1259  -1.2317
H       2.9008  1.4378  -0.3443
H       3.0284  -1.4760  0.4583
H       3.8071  -0.0709  1.1755
H       1.3300  -0.8729  2.0972
H       1.4974  0.7957  1.8519
H       -1.3709  -0.7059  -1.9038
