27

Co      -0.0490  -0.0427  -0.0422
Cl      0.0068  -2.3022  -0.2122
Cl      0.0064  2.3655  0.2231
N       -1.4795  0.1641  -1.3286
N       -1.5450  -0.1500  1.3620
N       1.5057  0.1607  -1.2730
N       1.5711  -0.1462  1.3064
C       -2.7116  0.3646  -0.5992
C       -2.7609  -0.3844  0.6394
C       2.7672  0.3711  -0.5896
C       2.8165  -0.3905  0.6298
H       -1.3218  0.9790  -1.9028
H       -2.7975  1.4201  -0.3947
H       -3.5597  0.0727  -1.1990
H       -3.6333  -0.0281  1.1821
H       -2.8759  -1.4411  0.4743
H       -1.5786  0.7302  1.8456
H       -1.3960  -0.8754  2.0344
H       1.5698  -0.6599  -1.8474
H       1.3612  0.9493  -1.8834
H       3.5924  0.0822  -1.2220
H       2.8630  1.4238  -0.3790
H       2.9416  -1.4473  0.4586
H       3.6659  -0.0371  1.2051
H       1.4352  -0.8452  2.0151
H       1.6078  0.7505  1.7603
H       -1.5404  -0.6380  -1.9328
