27

Co      0.0000  0.0061  -0.0389
Cl      0.0002  -2.2915  -0.2139
Cl      -0.0001  2.2875  0.2181
N       -1.4687  0.1522  -1.3111
N       -1.5341  -0.1483  1.3478
N       1.4687  0.1522  -1.3110
N       1.5341  -0.1478  1.3478
C       -2.7052  0.3696  -0.5960
C       -2.7545  -0.3893  0.6328
C       2.7053  0.3696  -0.5961
C       2.7545  -0.3889  0.6330
H       -1.3360  0.9238  -1.9420
H       -2.7841  1.4251  -0.3865
H       -3.5504  0.0879  -1.2019
H       -3.6240  -0.0500  1.1816
H       -2.8625  -1.4461  0.4560
H       -1.5880  0.7148  1.8554
H       -1.3732  -0.8875  2.0029
H       1.5228  -0.6889  -1.8547
H       1.3362  0.9235  -1.9422
H       3.5504  0.0876  -1.2020
H       2.7842  1.4223  -0.3871
H       2.8628  -1.4457  0.4566
H       3.6240  -0.0492  1.1817
H       1.3732  -0.8868  2.0032
H       1.5877  0.7156  1.8551
H       -1.5228  -0.6866  -1.8551
