27

Co      0.0741  -0.0061  0.0389
Cl      -0.0063  -2.2358  -0.2162
Cl      -0.0067  2.2400  0.2123
N       -1.4086  0.1423  -1.3081
N       -1.4217  -0.1465  1.3449
N       1.4200  0.1319  -1.3371
N       1.2760  -0.1357  1.2267
C       -2.8059  0.4339  -0.6866
C       -2.8062  -0.4275  0.6695
C       2.7995  0.4467  -0.7071
C       2.7015  -0.4104  0.6507
H       -1.2733  0.8314  -2.0327
H       -2.7592  1.5014  -0.5032
H       -3.6904  0.2129  -1.2675
H       -3.7006  -0.2388  1.2533
H       -2.7313  -1.4937  0.4681
H       -1.6547  0.6939  1.8727
H       -1.3351  -0.8492  2.0740
H       1.6363  -0.7243  -1.8364
H       1.2505  0.8091  -2.0692
H       3.7005  0.1974  -1.2510
H       2.7567  1.5170  -0.5409
H       2.6307  -1.4767  0.4371
H       3.5385  -0.2425  1.3108
H       1.1157  -0.8656  1.9044
H       1.4722  0.6831  1.7926
H       -1.6267  -0.7082  -1.8282
