27

Co      0.0000  0.0061  -0.0389
Cl      0.0002  -2.2595  -0.2085
Cl      -0.0001  2.2555  0.2127
N       -1.5104  0.1533  -1.3936
N       -1.5759  -0.1493  1.4303
N       1.5105  0.1532  -1.3936
N       1.5758  -0.1488  1.4304
C       -2.7681  0.3971  -0.6081
C       -2.8175  -0.4168  0.6448
C       2.7682  0.3970  -0.6082
C       2.8174  -0.4164  0.6451
H       -1.2862  0.9551  -1.9535
H       -2.8678  1.4362  -0.3427
H       -3.5277  0.1533  -1.3456
H       -3.6058  -0.1154  1.3208
H       -2.9462  -1.4600  0.4122
H       -1.4763  0.7398  1.9094
H       -1.3234  -0.9188  2.0144
H       1.4066  -0.7138  -1.9087
H       1.2864  0.9548  -1.9538
H       3.5276  0.1529  -1.3457
H       2.8679  1.4362  -0.3433
H       2.9464  -1.4596  0.4129
H       3.6012  -0.1145  1.3254
H       1.3233  -0.9181  2.0148
H       1.4715  0.7405  1.9091
H       -1.4066  -0.7115  -1.9091
