27

Co      -0.0490  0.0000  0.0000
Cl      0.0068  -2.3448  -0.2251
Cl      0.0064  2.3448  0.2252
N       -1.5803  0.1321  -1.4126
N       -1.5803  -0.1322  1.4125
N       1.6065  0.1325  -1.3569
N       1.6064  -0.1322  1.3569
C       -2.7231  0.4081  -0.5970
C       -2.7233  -0.4073  0.5970
C       2.7787  0.4146  -0.5873
C       2.7789  -0.4135  0.5874
H       -1.2026  0.8833  -1.9895
H       -2.8009  1.4531  -0.3362
H       -3.6433  0.1244  -1.1049
H       -3.6478  -0.1233  1.1005
H       -2.8016  -1.4496  0.3362
H       -1.4177  0.7862  1.8424
H       -1.2031  -0.8838  1.9890
H       1.4391  -0.8064  -1.7604
H       1.2421  0.8573  -1.9664
H       3.6760  0.1301  -1.1279
H       2.8702  1.4531  -0.3242
H       2.8710  -1.4520  0.3243
H       3.6759  -0.1285  1.1281
H       1.2422  -0.8574  1.9661
H       1.4386  0.8065  1.7608
H       -1.4135  -0.7865  -1.8421
