27

Co      0.0000  0.0000  0.0000
Cl      0.0002  -2.3286  -0.2213
Cl      -0.0001  2.3287  0.2214
N       -1.4118  0.1836  -1.3470
N       -1.4118  -0.1838  1.3469
N       1.4118  0.1836  -1.3470
N       1.4118  -0.1833  1.3470
C       -2.7438  0.3749  -0.6580
C       -2.7440  -0.3742  0.6579
C       2.7439  0.3749  -0.6581
C       2.7440  -0.3738  0.6582
H       -1.4598  0.8259  -2.1770
H       -2.6562  1.4432  -0.4610
H       -3.6982  0.1834  -1.1608
H       -3.6936  -0.1823  1.1655
H       -2.6568  -1.4425  0.4611
H       -1.4896  0.7442  1.7444
H       -1.4602  -0.8265  2.1766
H       1.4943  -0.7449  -1.7437
H       1.4600  0.8256  -2.1728
H       3.6981  0.1875  -1.1610
H       2.6563  1.4432  -0.4617
H       2.6571  -1.4421  0.4617
H       3.6981  -0.1859  1.1611
H       1.4557  -0.8257  2.1725
H       1.4938  0.7449  1.7440
H       -1.4944  -0.7446  -1.7441
