27

Co      0.0000  0.0000  0.0000
Cl      0.0002  -2.2894  -0.2159
Cl      -0.0001  2.2895  0.2160
N       -1.5423  0.1152  -1.3342
N       -1.5423  -0.1153  1.3341
N       1.5423  0.1152  -1.3341
N       1.5422  -0.1149  1.3342
C       -2.7167  0.4149  -0.6059
C       -2.7169  -0.4142  0.6059
C       2.7168  0.4149  -0.6061
C       2.7169  -0.4138  0.6061
H       -1.0151  0.9586  -1.7663
H       -2.9268  1.4637  -0.4074
H       -3.5553  0.0071  -1.1640
H       -3.5598  -0.0061  1.1596
H       -2.9275  -1.4602  0.4075
H       -1.4898  0.6949  1.9348
H       -1.0156  -0.9591  1.7658
H       1.4855  -0.6955  -1.9341
H       1.0153  0.9583  -1.7710
H       3.5553  0.0023  -1.1641
H       2.9270  1.4609  -0.4081
H       2.9278  -1.4598  0.4081
H       3.5552  -0.0008  1.1643
H       1.0199  -0.9583  1.7706
H       1.4850  0.6956  1.9344
H       -1.4855  -0.6952  -1.9345
