27

Co      -0.0250  0.0061  -0.0389
Cl      0.0002  -2.2632  -0.2160
Cl      -0.0001  2.2592  0.2202
N       -1.5396  0.1258  -1.3631
N       -1.5265  -0.1219  1.3261
N       1.5020  0.1432  -1.3895
N       1.6459  -0.1388  1.5000
C       -2.7935  0.4333  -0.6224
C       -2.7937  -0.4383  0.6395
C       2.7444  0.4140  -0.6120
C       2.8428  -0.4480  0.6685
H       -1.2181  0.8304  -2.0232
H       -2.7539  1.4870  -0.3675
H       -3.7553  0.2283  -1.1086
H       -3.7405  -0.2002  1.1276
H       -2.7831  -1.4961  0.4027
H       -1.5100  0.7881  1.7524
H       -1.1571  -0.8137  1.9810
H       1.5002  -0.7393  -1.8761
H       1.2020  0.8853  -2.0031
H       3.7124  0.2295  -1.1025
H       2.6950  1.4640  -0.3512
H       2.8226  -1.5022  0.4551
H       3.8743  -0.1813  1.0429
H       1.3372  -0.8289  2.1672
H       1.6633  0.7808  1.9206
H       -1.5430  -0.7745  -1.7963
