27

Co      0.0000  0.0000  0.0000
Cl      0.0002  -2.3215  -0.2213
Cl      -0.0001  2.3215  0.2214
N       -1.3752  0.1407  -1.2977
N       -1.3752  -0.1409  1.2976
N       1.3752  0.1407  -1.2976
N       1.3752  -0.1404  1.2976
C       -2.7767  0.4284  -0.6784
C       -2.7769  -0.4277  0.6784
C       2.7767  0.4284  -0.6785
C       2.7769  -0.4272  0.6786
H       -1.2352  0.8403  -2.0118
H       -2.7224  1.4938  -0.4903
H       -3.6522  0.2154  -1.2760
H       -3.6477  -0.2143  1.2807
H       -2.7231  -1.4959  0.4903
H       -1.5825  0.7010  1.8267
H       -1.2357  -0.8408  2.0114
H       1.5873  -0.7016  -1.8260
H       1.2354  0.8400  -2.0121
H       3.6522  0.2150  -1.2762
H       2.7225  1.4967  -0.4910
H       2.7233  -1.4956  0.4910
H       3.6521  -0.2135  1.2763
H       1.2356  -0.8401  2.0117
H       1.5868  0.7017  1.8264
H       -1.5873  -0.7013  -1.8264
