27

Co      -0.0490  0.0000  0.0000
Cl      0.0068  -2.2574  -0.2106
Cl      0.0064  2.2575  0.2107
N       -1.5740  0.1269  -1.4542
N       -1.4955  -0.1270  1.3805
N       1.5217  0.1236  -1.3249
N       1.6002  -0.1233  1.3986
C       -2.7854  0.4374  -0.6689
C       -2.7366  -0.4220  0.6492
C       2.7920  0.4292  -0.6395
C       2.8412  -0.4428  0.6593
H       -1.1033  0.9586  -1.9206
H       -2.8758  1.4970  -0.5066
H       -3.7413  0.0717  -1.0958
H       -3.6529  -0.0804  1.1352
H       -2.8273  -1.4815  0.4722
H       -1.5946  0.6303  2.0544
H       -1.0056  -0.9788  1.8170
H       1.6243  -0.6505  -1.9687
H       1.0446  0.9485  -1.8025
H       3.6856  0.0865  -1.1581
H       2.8922  1.4888  -0.4565
H       2.9421  -1.5024  0.4909
H       3.7739  -0.0751  1.1189
H       1.1473  -0.9289  1.9053
H       1.7219  0.6653  2.0133
H       -1.6931  -0.6454  -2.0983
