27

Co      0.0000  0.0427  0.0422
Cl      0.0002  -2.2767  -0.2196
Cl      -0.0001  2.2135  0.2089
N       -1.4247  0.1397  -1.3247
N       -1.4378  -0.1540  1.3648
N       1.5033  0.1396  -1.3983
N       1.3592  -0.1535  1.2912
C       -2.7367  0.4052  -0.6681
C       -2.7370  -0.3988  0.6476
C       2.7859  0.4199  -0.6879
C       2.6879  -0.3836  0.6282
H       -1.3163  0.8270  -2.0584
H       -2.7222  1.4755  -0.5059
H       -3.6588  0.1413  -1.1781
H       -3.6690  -0.1739  1.1606
H       -2.6943  -1.4650  0.4607
H       -1.6784  0.6407  1.9608
H       -1.3410  -0.9120  2.0290
H       1.7216  -0.7319  -1.8726
H       1.4146  0.8070  -2.1617
H       3.7471  0.1311  -1.1390
H       2.7714  1.4903  -0.5409
H       2.6455  -1.4499  0.4270
H       3.5851  -0.1828  1.1955
H       1.2428  -0.9309  1.9263
H       1.5844  0.6267  1.9163
H       -1.6235  -0.7189  -1.8288
