27

Co      0.0000  0.0000  0.0000
Cl      0.0002  -2.2451  -0.2142
Cl      -0.0001  2.2451  0.2143
N       -1.4343  0.1818  -1.3189
N       -1.5128  -0.1819  1.3925
N       1.5128  0.1818  -1.3925
N       1.4342  -0.1815  1.3189
C       -2.6804  0.4084  -0.6801
C       -2.7297  -0.4224  0.6998
C       2.7295  0.4231  -0.6999
C       2.6806  -0.4072  0.6803
H       -1.2811  0.8364  -2.0673
H       -2.7223  1.4688  -0.4664
H       -3.4909  0.1787  -1.3502
H       -3.5793  -0.1678  1.3110
H       -2.7721  -1.4828  0.5008
H       -1.5267  0.7706  1.7489
H       -1.3797  -0.8174  2.1699
H       1.5270  -0.7712  -1.7482
H       1.3794  0.8165  -2.1662
H       3.5793  0.1730  -1.3139
H       2.7687  1.4835  -0.5014
H       2.7204  -1.4677  0.4671
H       3.4909  -0.1812  1.3533
H       1.2770  -0.8362  2.0628
H       1.4283  0.7566  1.7044
H       -1.4288  -0.7562  -1.7044
