27

Co      -0.0490  0.0061  -0.0389
Cl      0.0068  -2.2952  -0.2214
Cl      0.0064  2.2912  0.2255
N       -1.5414  0.1242  -1.3855
N       -1.5283  -0.1203  1.3486
N       1.4890  0.1246  -1.2562
N       1.6330  -0.1203  1.3667
C       -2.6937  0.4093  -0.5836
C       -2.6939  -0.4143  0.6008
C       2.7003  0.4011  -0.5543
C       2.7986  -0.4351  0.6108
H       -1.1807  0.8659  -1.9834
H       -2.7573  1.4523  -0.3087
H       -3.6036  0.1468  -1.1116
H       -3.5933  -0.1187  1.1260
H       -2.7865  -1.4586  0.3439
H       -1.3562  0.8143  1.7571
H       -1.1198  -0.8493  1.9412
H       1.3122  -0.8080  -1.6751
H       1.1220  0.8595  -1.8572
H       3.5479  0.1623  -1.1739
H       2.7774  1.4376  -0.2624
H       2.9051  -1.4757  0.3663
H       3.7098  -0.1141  1.1143
H       1.2571  -0.8032  2.0213
H       1.4753  0.8494  1.7197
H       -1.3847  -0.8008  -1.8010
