27

Co      0.0000  0.0000  0.0000
Cl      0.0002  -2.2894  -0.2159
Cl      -0.0001  2.2895  0.2160
N       -1.4139  0.1844  -1.3586
N       -1.4139  -0.1845  1.3585
N       1.4140  0.1843  -1.3585
N       1.4139  -0.1840  1.3585
C       -2.8160  0.4003  -0.6833
C       -2.8163  -0.3996  0.6833
C       2.8161  0.4002  -0.6834
C       2.8163  -0.3991  0.6835
H       -1.4355  0.8200  -2.1886
H       -2.6933  1.4657  -0.4713
H       -3.7443  0.2485  -1.2404
H       -3.7398  -0.2474  1.2451
H       -2.6939  -1.4678  0.4713
H       -1.4917  0.7473  1.7493
H       -1.4360  -0.8205  2.1881
H       1.4965  -0.7480  -1.7485
H       1.4357  0.8197  -2.1844
H       3.7443  0.2525  -1.2406
H       2.6934  1.4686  -0.4719
H       2.6942  -1.4675  0.4719
H       3.7442  -0.2510  1.2407
H       1.4315  -0.8198  2.1841
H       1.4959  0.7481  1.7489
H       -1.4965  -0.7477  -1.7489
