27

Co      0.0490  0.0000  0.0000
Cl      -0.0063  -2.2451  -0.2142
Cl      -0.0067  2.2451  0.2143
N       -1.4624  0.1406  -1.3306
N       -1.4624  -0.1407  1.3305
N       1.4363  0.1438  -1.3861
N       1.4362  -0.1435  1.3861
C       -2.7600  0.4101  -0.6349
C       -2.7602  -0.4094  0.6348
C       2.7045  0.4036  -0.6448
C       2.7047  -0.4025  0.6449
H       -1.2938  0.8726  -1.9934
H       -2.8039  1.4648  -0.4164
H       -3.5921  0.1585  -1.2689
H       -3.5920  -0.1574  1.2690
H       -2.8046  -1.4641  0.4164
H       -1.5231  0.7256  1.8299
H       -1.2942  -0.8731  1.9930
H       1.4939  -0.7066  -1.9142
H       1.2548  0.9017  -2.0133
H       3.5593  0.1483  -1.2461
H       2.7387  1.4583  -0.4333
H       2.7395  -1.4572  0.4334
H       3.5593  -0.1467  1.2463
H       1.2549  -0.9018  2.0129
H       1.4934  0.7067  1.9145
H       -1.5233  -0.7260  -1.8296
