27

Co      -0.0250  0.0061  -0.0389
Cl      0.0002  -2.3431  -0.2156
Cl      -0.0001  2.3390  0.2198
N       -1.5329  0.1553  -1.3433
N       -1.5198  -0.1514  1.3064
N       1.4954  0.1689  -1.3698
N       1.6393  -0.1645  1.4802
C       -2.7591  0.3751  -0.6061
C       -2.7593  -0.3802  0.6232
C       2.7101  0.3558  -0.5957
C       2.8084  -0.3899  0.6522
H       -1.3967  0.9240  -1.9773
H       -2.8448  1.4306  -0.4067
H       -3.6190  0.0764  -1.1889
H       -3.6042  -0.0484  1.2079
H       -2.8741  -1.4369  0.4419
H       -1.5544  0.6977  1.8351
H       -1.3358  -0.9074  1.9351
H       1.5484  -0.6490  -1.9550
H       1.3807  0.9752  -1.9610
H       3.5761  0.0813  -1.1828
H       2.7822  1.4085  -0.3866
H       2.9098  -1.4467  0.4906
H       3.7380  -0.0331  1.1232
H       1.5158  -0.9188  2.1251
H       1.7115  0.6904  1.9996
H       -1.5874  -0.6841  -1.8789
