27

Co      0.0490  0.0000  0.0000
Cl      -0.0063  -2.2771  -0.2195
Cl      -0.0067  2.2771  0.2196
N       -1.3825  0.1295  -1.2954
N       -1.3825  -0.1296  1.2953
N       1.3563  0.1327  -1.3509
N       1.3563  -0.1324  1.3509
C       -2.7658  0.4379  -0.6554
C       -2.7660  -0.4372  0.6554
C       2.7103  0.4313  -0.6654
C       2.7104  -0.4302  0.6654
H       -1.1767  0.8368  -1.9750
H       -2.7723  1.4898  -0.4182
H       -3.5525  0.2295  -1.3677
H       -3.5525  -0.2284  1.3678
H       -2.7730  -1.4919  0.4183
H       -1.4383  0.7538  1.7701
H       -1.1771  -0.8374  1.9745
H       1.4091  -0.7348  -1.8544
H       1.1377  0.8660  -1.9948
H       3.5198  0.2193  -1.3449
H       2.7070  1.4861  -0.4352
H       2.7079  -1.4850  0.4353
H       3.5198  -0.2177  1.3451
H       1.1378  -0.8660  1.9945
H       1.4086  0.7349  1.8548
H       -1.4386  -0.7541  -1.7698
