27

Co      -0.0741  -0.0427  -0.0422
Cl      0.0068  -2.2630  -0.2069
Cl      0.0064  2.3263  0.2178
N       -1.4889  0.1583  -1.3037
N       -1.5544  -0.1442  1.3370
N       1.5561  0.1686  -1.3482
N       1.6215  -0.1541  1.3816
C       -2.7793  0.4016  -0.6116
C       -2.8286  -0.4214  0.6518
C       2.8349  0.4036  -0.6111
C       2.8842  -0.4229  0.6513
H       -1.0568  0.9655  -1.8062
H       -2.8902  1.4456  -0.3587
H       -3.5896  0.1113  -1.2608
H       -3.6677  -0.0667  1.2394
H       -2.9686  -1.4694  0.4384
H       -1.3382  0.8051  1.7228
H       -1.1311  -0.8619  1.9377
H       1.3840  -0.7120  -1.8452
H       1.1782  0.9677  -1.8733
H       3.6678  0.1162  -1.2383
H       2.9421  1.4476  -0.3567
H       3.0206  -1.4710  0.4363
H       3.7414  -0.0711  1.2214
H       1.2522  -0.8636  2.0050
H       1.4220  0.8027  1.7581
H       -1.2955  -0.7129  -1.8100
