27

Co      0.0000  0.0488  0.0034
Cl      0.0002  -2.3623  -0.2246
Cl      -0.0001  2.2950  0.2180
N       -1.3755  0.1360  -1.3301
N       -1.4541  -0.1462  1.4070
N       1.4541  0.1359  -1.4037
N       1.3755  -0.1457  1.3334
C       -2.7428  0.4232  -0.6570
C       -2.7921  -0.4372  0.6732
C       2.7920  0.4378  -0.6767
C       2.7430  -0.4220  0.6538
H       -1.1791  0.8537  -1.9956
H       -2.7444  1.4750  -0.4242
H       -3.5392  0.2172  -1.3615
H       -3.6275  -0.2131  1.3190
H       -2.7942  -1.4919  0.4485
H       -1.5312  0.6982  1.9417
H       -1.2407  -0.9019  2.0275
H       1.5045  -0.7627  -1.8535
H       1.2775  0.8337  -2.0989
H       3.6275  0.2070  -1.3223
H       2.7936  1.4926  -0.4592
H       2.7454  -1.4768  0.4148
H       3.5391  -0.2220  1.3584
H       1.1424  -0.9208  1.9248
H       1.4328  0.6841  1.8972
H       -1.4064  -0.7478  -1.8097
