27

Co      0.0000  -0.0488  -0.0034
Cl      0.0002  -2.2610  -0.2089
Cl      -0.0001  2.3284  0.2157
N       -1.5371  0.1660  -1.3308
N       -1.5371  -0.1560  1.3273
N       1.5372  0.1659  -1.3307
N       1.5371  -0.1555  1.3274
C       -2.8361  0.4083  -0.6478
C       -2.8364  -0.4076  0.6511
C       2.8362  0.4083  -0.6479
C       2.8364  -0.4072  0.6514
H       -1.1900  0.9303  -1.9110
H       -2.8916  1.4679  -0.4509
H       -3.7560  0.1001  -1.1489
H       -3.7560  -0.0922  1.1524
H       -2.8923  -1.4671  0.4610
H       -1.4900  0.7530  1.7643
H       -1.2275  -0.8635  1.9812
H       1.5171  -0.6897  -1.8511
H       1.1902  0.9300  -1.9112
H       3.7560  0.0997  -1.1490
H       2.8917  1.4679  -0.4515
H       2.8926  -1.4668  0.4617
H       3.7559  -0.0914  1.1525
H       1.2274  -0.8627  1.9816
H       1.4897  0.7538  1.7640
H       -1.5172  -0.6894  -1.8515
