27

Co      0.0000  0.0488  0.0034
Cl      0.0002  -2.3179  -0.2229
Cl      -0.0001  2.2506  0.2163
N       -1.3967  0.1699  -1.3763
N       -1.3967  -0.1801  1.3796
N       1.3968  0.1698  -1.3762
N       1.3967  -0.1796  1.3796
C       -2.7189  0.4017  -0.7030
C       -2.7191  -0.4010  0.6996
C       2.7189  0.4016  -0.7031
C       2.7191  -0.4005  0.6998
H       -1.4922  0.8077  -2.2093
H       -2.6136  1.4544  -0.4370
H       -3.4763  0.3439  -1.5183
H       -3.4763  -0.3496  1.5151
H       -2.6143  -1.4565  0.4269
H       -1.3801  0.7337  1.8090
H       -1.4556  -0.8755  2.1382
H       1.3534  -0.7983  -1.7208
H       1.4924  0.8074  -2.2051
H       3.4763  0.3480  -1.5213
H       2.6109  1.4572  -0.4376
H       2.6117  -1.4561  0.4276
H       3.4762  -0.3531  1.5181
H       1.4511  -0.8748  2.1341
H       1.3798  0.7344  1.8087
H       -1.3534  -0.7981  -1.7211
