27

Co      -0.0490  -0.0488  -0.0034
Cl      0.0068  -2.2667  -0.2200
Cl      0.0064  2.3341  0.2269
N       -1.5282  0.1292  -1.4431
N       -1.5282  -0.1192  1.4396
N       1.5544  0.1296  -1.3875
N       1.5544  -0.1192  1.3841
C       -2.7255  0.4351  -0.6207
C       -2.7258  -0.4344  0.6240
C       2.7812  0.4416  -0.6110
C       2.7813  -0.4405  0.6144
H       -1.1039  0.8988  -1.9847
H       -2.7492  1.4773  -0.3345
H       -3.6318  0.2118  -1.1690
H       -3.6363  -0.2040  1.1680
H       -2.7499  -1.4766  0.3446
H       -1.3573  0.8334  1.8156
H       -1.1414  -0.8321  2.0550
H       1.4056  -0.7897  -1.8212
H       1.1433  0.8729  -1.9616
H       3.6645  0.2175  -1.1920
H       2.8185  1.4802  -0.3225
H       2.8193  -1.4791  0.3327
H       3.6644  -0.2092  1.1955
H       1.1805  -0.8056  2.0320
H       1.3782  0.8538  1.7340
H       -1.3800  -0.7698  -1.9028
