27

Co      0.0000  0.0000  0.0000
Cl      0.0002  -2.3215  -0.2213
Cl      -0.0001  2.3215  0.2214
N       -1.4084  0.1743  -1.3032
N       -1.4084  -0.1745  1.3031
N       1.4084  0.1743  -1.3031
N       1.4083  -0.1740  1.3031
C       -2.7441  0.3818  -0.6351
C       -2.7443  -0.3811  0.6351
C       2.7441  0.3818  -0.6352
C       2.7443  -0.3807  0.6353
H       -1.3768  0.8249  -2.0957
H       -2.7362  1.4365  -0.3975
H       -3.5862  0.1741  -1.2776
H       -3.5862  -0.1730  1.2777
H       -2.7369  -1.4358  0.3975
H       -1.3231  0.7948  1.6500
H       -1.3773  -0.8254  2.0952
H       1.3233  -0.7954  -1.6493
H       1.3770  0.8246  -2.0915
H       3.5862  0.1782  -1.2777
H       2.7363  1.4366  -0.3981
H       2.7372  -1.4355  0.3981
H       3.5861  -0.1766  1.2779
H       1.3728  -0.8246  2.0911
H       1.3228  0.7955  1.6497
H       -1.3233  -0.7951  -1.6497
