27

Co      0.0000  0.0488  0.0034
Cl      0.0002  -2.3070  -0.2154
Cl      -0.0001  2.2397  0.2088
N       -1.2836  0.1557  -1.2749
N       -1.3621  -0.1659  1.3518
N       1.3622  0.1519  -1.3484
N       1.2836  -0.1617  1.2782
C       -2.7217  0.3917  -0.6793
C       -2.7710  -0.4057  0.6956
C       2.7709  0.4063  -0.6991
C       2.7219  -0.3905  0.6762
H       -1.3113  0.8905  -1.9886
H       -2.7338  1.4560  -0.5174
H       -3.4667  0.1575  -1.4368
H       -3.5505  -0.1533  1.3988
H       -2.7835  -1.4728  0.5416
H       -1.6541  0.6027  1.9972
H       -1.3729  -0.9387  2.0205
H       1.6357  -0.6673  -1.9052
H       1.4096  0.8668  -2.0957
H       3.5551  0.1510  -1.3977
H       2.7792  1.4773  -0.5486
H       2.7310  -1.4615  0.5042
H       3.4666  -0.1660  1.4337
H       1.2746  -0.9539  1.9215
H       1.5639  0.5887  1.9489
H       -1.5338  -0.6523  -1.8652
