27

Co      -0.0490  -0.0488  -0.0034
Cl      0.0068  -2.2203  -0.2147
Cl      0.0064  2.2877  0.2215
N       -1.5178  0.1233  -1.3668
N       -1.5178  -0.1134  1.3633
N       1.5440  0.1237  -1.3111
N       1.5440  -0.1133  1.3078
C       -2.7575  0.4627  -0.6286
C       -2.7577  -0.4620  0.6319
C       2.8131  0.4692  -0.6189
C       2.8133  -0.4681  0.6223
H       -1.2206  0.8551  -1.9950
H       -2.8593  1.5137  -0.4098
H       -3.5796  0.1570  -1.2567
H       -3.5796  -0.1492  1.2602
H       -2.8600  -1.5129  0.4199
H       -1.6995  0.7691  1.8238
H       -1.2580  -0.7883  2.0652
H       1.7523  -0.7253  -1.8294
H       1.2600  0.8291  -1.9719
H       3.6123  0.1627  -1.2797
H       2.9286  1.5165  -0.3978
H       2.9294  -1.5154  0.4079
H       3.6122  -0.1544  1.2832
H       1.2972  -0.7618  2.0422
H       1.7249  0.7894  1.7423
H       -1.7267  -0.7055  -1.9111
