27

Co      0.0490  0.0488  0.0034
Cl      -0.0063  -2.3551  -0.2246
Cl      -0.0067  2.2879  0.2180
N       -1.3786  0.1292  -1.2682
N       -1.3786  -0.1394  1.2714
N       1.3524  0.1324  -1.3237
N       1.3524  -0.1422  1.3271
C       -2.8044  0.4268  -0.6655
C       -2.8047  -0.4261  0.6621
C       2.7489  0.4202  -0.6754
C       2.7491  -0.4191  0.6721
H       -1.4189  0.8016  -2.0616
H       -2.7696  1.4874  -0.4678
H       -3.5716  0.2412  -1.4201
H       -3.5670  -0.2469  1.4214
H       -2.7703  -1.4895  0.4577
H       -1.6835  0.6545  1.8716
H       -1.3823  -0.8695  1.9905
H       1.6319  -0.6995  -1.8684
H       1.3798  0.8307  -2.0815
H       3.5389  0.2310  -1.3974
H       2.7044  1.4837  -0.4848
H       2.7052  -1.4826  0.4747
H       3.5388  -0.2362  1.3941
H       1.3429  -0.8981  2.0104
H       1.6583  0.6356  1.9563
H       -1.6613  -0.7189  -1.7837
