27

Co      0.0000  0.0000  0.0000
Cl      0.0002  -2.3249  -0.2138
Cl      -0.0001  2.3249  0.2139
N       -1.4198  0.2048  -1.3643
N       -1.4198  -0.2049  1.3642
N       1.4198  0.2010  -1.3643
N       1.4198  -0.2007  1.3643
C       -2.7301  0.3878  -0.6629
C       -2.7303  -0.3871  0.6629
C       2.7301  0.3878  -0.6631
C       2.7303  -0.3867  0.6631
H       -1.3041  0.8936  -2.0827
H       -2.8863  1.4462  -0.5049
H       -3.5328  0.0080  -1.2873
H       -3.5328  -0.0069  1.2874
H       -2.8869  -1.4455  0.5049
H       -1.4297  0.7112  1.7915
H       -1.3046  -0.8941  2.0823
H       1.4337  -0.7119  -1.7870
H       1.3043  0.8895  -2.0823
H       3.5328  0.0158  -1.2874
H       2.8827  1.4500  -0.5017
H       2.8835  -1.4489  0.5018
H       3.5327  -0.0142  1.2876
H       1.3001  -0.8896  2.0820
H       1.4332  0.7120  1.7874
H       -1.4300  -0.7116  -1.7912
