27

Co      0.0250  -0.0061  0.0389
Cl      0.0002  -2.2321  -0.2088
Cl      -0.0001  2.2362  0.2048
N       -1.4442  0.1768  -1.3596
N       -1.3788  -0.1810  1.3227
N       1.4033  0.1593  -1.2594
N       1.3378  -0.1631  1.2226
C       -2.7698  0.3865  -0.6948
C       -2.7210  -0.3653  0.6579
C       2.7699  0.3910  -0.6858
C       2.7210  -0.3694  0.6491
H       -1.3441  0.9188  -2.0322
H       -2.8242  1.4605  -0.5838
H       -3.6855  0.0352  -1.1791
H       -3.6073  -0.0709  1.2042
H       -2.7471  -1.4353  0.5143
H       -1.5741  0.6121  1.9371
H       -1.3077  -0.9561  1.9704
H       1.5889  -0.6621  -1.8120
H       1.2624  0.8829  -1.9497
H       3.6399  0.0432  -1.2247
H       2.8342  1.4688  -0.5670
H       2.7573  -1.4432  0.4976
H       3.5662  -0.0784  1.2453
H       1.2257  -0.9198  1.8880
H       1.5229  0.6356  1.8124
H       -1.6443  -0.6411  -1.9368
