27

Co      -0.0250  -0.0488  -0.0034
Cl      0.0002  -2.3073  -0.2142
Cl      -0.0001  2.3747  0.2211
N       -1.5444  0.1538  -1.3401
N       -1.5444  -0.1438  1.3367
N       1.5854  0.1674  -1.4402
N       1.5854  -0.1570  1.4369
C       -2.7546  0.3825  -0.5949
C       -2.7548  -0.3818  0.5982
C       2.7547  0.3779  -0.6041
C       2.7548  -0.3768  0.6076
H       -1.2933  0.9672  -1.8804
H       -2.9224  1.4265  -0.3605
H       -3.5212  0.0618  -1.2871
H       -3.5257  -0.0540  1.2861
H       -2.9231  -1.4229  0.3706
H       -1.4172  0.7589  1.7908
H       -1.3307  -0.9004  1.9506
H       1.4990  -0.6728  -1.9983
H       1.3754  0.9987  -1.9671
H       3.5667  0.0569  -1.2417
H       2.9089  1.4191  -0.3747
H       2.9097  -1.4180  0.3849
H       3.5666  -0.0485  1.2452
H       1.4126  -0.9315  2.0375
H       1.4715  0.7368  1.9111
H       -1.4398  -0.6953  -1.8780
