27

Co      0.0250  0.0000  0.0000
Cl      0.0002  -2.2805  -0.2121
Cl      -0.0001  2.2806  0.2122
N       -1.3649  0.1724  -1.4208
N       -1.3649  -0.1725  1.4207
N       1.3239  0.1549  -1.3206
N       1.3239  -0.1546  1.3206
C       -2.7415  0.3943  -0.6968
C       -2.7417  -0.3936  0.6968
C       2.7415  0.3989  -0.6878
C       2.7417  -0.3978  0.6879
H       -1.4115  0.9494  -2.0887
H       -2.7347  1.4587  -0.5411
H       -3.5552  0.1584  -1.3664
H       -3.5506  -0.1573  1.3711
H       -2.7354  -1.4608  0.5411
H       -1.6474  0.6016  2.0646
H       -1.4120  -0.9500  2.0882
H       1.5968  -0.6250  -1.9395
H       1.3298  0.9135  -2.0062
H       3.5096  0.1663  -1.4121
H       2.7447  1.4698  -0.5243
H       2.7456  -1.4687  0.5244
H       3.5096  -0.1648  1.4122
H       1.3299  -0.9136  2.0059
H       1.5963  0.6251  1.9398
H       -1.6522  -0.6020  -2.0642
