27

Co      -0.0250  -0.0427  -0.0422
Cl      0.0002  -2.2702  -0.2069
Cl      -0.0001  2.3335  0.2178
N       -1.5899  0.1551  -1.3532
N       -1.5768  -0.1410  1.3129
N       1.5524  0.1687  -1.3797
N       1.6963  -0.1542  1.4868
C       -2.7773  0.4142  -0.5906
C       -2.7775  -0.4192  0.6111
C       2.7282  0.3949  -0.5802
C       2.8266  -0.4290  0.6401
H       -1.2696  0.9595  -1.8873
H       -3.0503  1.4561  -0.3836
H       -3.5045  -0.0035  -1.2985
H       -3.4942  0.0383  1.3163
H       -3.0795  -1.4624  0.4288
H       -1.5564  0.7475  1.7824
H       -1.2457  -0.8755  1.9158
H       1.5728  -0.6348  -1.9899
H       1.2536  1.0107  -1.8709
H       3.4616  0.0014  -1.2924
H       2.9876  1.4341  -0.3635
H       3.1153  -1.4722  0.4775
H       3.6235  0.0536  1.2362
H       1.4257  -0.8870  2.1057
H       1.7089  0.7402  1.9469
H       -1.6118  -0.6700  -1.9138
