27

Co      0.0000  -0.0488  -0.0034
Cl      0.0002  -2.2166  -0.2072
Cl      -0.0001  2.2840  0.2140
N       -1.5166  0.1207  -1.3339
N       -1.5166  -0.1107  1.3304
N       1.5166  0.1206  -1.3338
N       1.5166  -0.1102  1.3305
C       -2.7935  0.4309  -0.6380
C       -2.7937  -0.4302  0.6413
C       2.7935  0.4308  -0.6381
C       2.7937  -0.4297  0.6415
H       -1.1721  0.9779  -1.8075
H       -2.9152  1.4856  -0.4520
H       -3.5949  0.1043  -1.2824
H       -3.5949  -0.0965  1.2859
H       -2.9159  -1.4849  0.4621
H       -1.6914  0.6695  1.9621
H       -1.2096  -0.9111  1.8777
H       1.7185  -0.6062  -2.0490
H       1.1723  0.9776  -1.8121
H       3.5949  0.0995  -1.2826
H       2.9153  1.4856  -0.4526
H       2.9162  -1.4845  0.4628
H       3.5948  -0.0912  1.2861
H       1.2139  -0.9104  1.8825
H       1.6911  0.6703  1.9618
H       -1.7186  -0.6059  -2.0494
