27

Co      0.0000  0.0000  0.0000
Cl      0.0002  -2.2966  -0.2159
Cl      -0.0001  2.2967  0.2160
N       -1.5341  0.1522  -1.4406
N       -1.4555  -0.1523  1.3669
N       1.4555  0.1521  -1.3669
N       1.5340  -0.1518  1.4406
C       -2.7861  0.4101  -0.6544
C       -2.7373  -0.3947  0.6347
C       2.7371  0.3954  -0.6349
C       2.7864  -0.4090  0.6546
H       -1.3759  0.9034  -2.0818
H       -2.8251  1.4648  -0.4516
H       -3.6670  0.1398  -1.2217
H       -3.5786  -0.1485  1.2612
H       -2.7767  -1.4494  0.4173
H       -1.5043  0.6873  1.9135
H       -1.2781  -0.9236  1.9782
H       1.5046  -0.6879  -1.9128
H       1.2779  0.9228  -1.9789
H       3.5786  0.1493  -1.2611
H       2.7762  1.4501  -0.4179
H       2.8261  -1.4638  0.4523
H       3.6669  -0.1379  1.2220
H       1.3762  -0.9032  2.0817
H       1.6023  0.7027  1.9574
H       -1.6028  -0.7024  -1.9574
