27

Co      0.0490  0.0488  0.0034
Cl      -0.0063  -2.2750  -0.2101
Cl      -0.0067  2.2077  0.2034
N       -1.4306  0.2009  -1.3415
N       -1.4306  -0.2111  1.3447
N       1.4045  0.2003  -1.3970
N       1.4044  -0.2101  1.4004
C       -2.7723  0.3582  -0.6554
C       -2.7725  -0.3575  0.6520
C       2.7168  0.3516  -0.6653
C       2.7169  -0.3505  0.6620
H       -1.4369  0.8653  -2.1252
H       -2.8163  1.4167  -0.4595
H       -3.6118  0.0913  -1.2764
H       -3.6118  -0.0970  1.2732
H       -2.8169  -1.4159  0.4494
H       -1.3441  0.7035  1.7805
H       -1.4003  -0.9332  2.0541
H       1.2917  -0.7485  -1.7735
H       1.3978  0.8907  -2.1444
H       3.5791  0.0893  -1.2537
H       2.7472  1.4139  -0.4727
H       2.7481  -1.4128  0.4627
H       3.5790  -0.0945  1.2505
H       1.3565  -0.9581  2.0734
H       1.3182  0.6846  1.8614
H       -1.3174  -0.7678  -1.6926
