27

Co      -0.0250  -0.0427  -0.0422
Cl      0.0002  -2.2186  -0.2052
Cl      -0.0001  2.2819  0.2161
N       -1.4993  0.1561  -1.3111
N       -1.4862  -0.1420  1.2708
N       1.4618  0.1696  -1.3375
N       1.6057  -0.1552  1.4446
C       -2.8020  0.4094  -0.6346
C       -2.8022  -0.4144  0.6552
C       2.7530  0.3901  -0.6242
C       2.8513  -0.4242  0.6841
H       -1.1559  0.9161  -1.9023
H       -2.8381  1.4669  -0.4214
H       -3.7150  0.1295  -1.1520
H       -3.7002  -0.0947  1.1743
H       -2.8673  -1.4760  0.4667
H       -1.4252  0.7782  1.6893
H       -1.1319  -0.8321  1.9307
H       1.4461  -0.6655  -1.8968
H       1.1398  0.9673  -1.8859
H       3.6721  0.1344  -1.1459
H       2.7754  1.4477  -0.4013
H       2.9031  -1.4858  0.5153
H       3.8340  -0.0794  1.0897
H       1.3120  -0.8436  2.1207
H       1.5823  0.7709  1.8538
H       -1.4852  -0.7007  -1.8207
