27

Co      0.0000  0.0488  0.0034
Cl      0.0002  -2.3623  -0.2246
Cl      -0.0001  2.2950  0.2180
N       -1.3837  0.1758  -1.3622
N       -1.3837  -0.1860  1.3655
N       1.3837  0.1757  -1.3622
N       1.3836  -0.1855  1.3656
C       -2.7804  0.4003  -0.6850
C       -2.7806  -0.3996  0.6816
C       2.7805  0.4002  -0.6851
C       2.7806  -0.3991  0.6818
H       -1.4220  0.7810  -2.2293
H       -2.6505  1.4657  -0.4745
H       -3.7122  0.2505  -1.2386
H       -3.7077  -0.2561  1.2399
H       -2.6512  -1.4678  0.4645
H       -1.4749  0.7207  1.7966
H       -1.3854  -0.8489  2.1581
H       1.4527  -0.7853  -1.7083
H       1.4222  0.7807  -2.2251
H       3.7122  0.2545  -1.2387
H       2.6506  1.4686  -0.4752
H       2.6515  -1.4675  0.4651
H       3.7121  -0.2597  1.2355
H       1.3809  -0.8481  2.1541
H       1.4791  0.7214  1.7963
H       -1.4527  -0.7850  -1.7087
