27

Co      0.0000  0.0000  0.0000
Cl      0.0002  -2.3018  -0.2123
Cl      -0.0001  2.3019  0.2124
N       -1.5898  0.1259  -1.3912
N       -1.5898  -0.1260  1.3911
N       1.5898  0.1258  -1.3912
N       1.5898  -0.1255  1.3912
C       -2.8183  0.4362  -0.6361
C       -2.8185  -0.4355  0.6360
C       2.8184  0.4361  -0.6362
C       2.8185  -0.4350  0.6363
H       -1.0435  0.9786  -1.8049
H       -2.9933  1.4821  -0.4276
H       -3.6486  0.0633  -1.2275
H       -3.6531  -0.0622  1.2232
H       -2.9940  -1.4814  0.4276
H       -1.5370  0.6768  2.0029
H       -1.0439  -0.9792  1.8044
H       1.5327  -0.6774  -2.0022
H       1.0437  0.9783  -1.8095
H       3.6486  0.0585  -1.2277
H       2.9934  1.4822  -0.4282
H       2.9943  -1.4811  0.4282
H       3.6485  -0.0569  1.2278
H       1.0482  -0.9784  1.8092
H       1.5322  0.6775  2.0026
H       -1.5328  -0.6772  -2.0026
