27

Co      -0.0490  0.0061  -0.0389
Cl      0.0068  -2.3431  -0.2156
Cl      0.0064  2.3390  0.2198
N       -1.5631  0.1333  -1.4123
N       -1.5500  -0.1294  1.3754
N       1.5107  0.1300  -1.2830
N       1.6547  -0.1256  1.3935
C       -2.7228  0.4002  -0.6251
C       -2.7230  -0.4052  0.6423
C       2.7294  0.3919  -0.5958
C       2.8277  -0.4260  0.6523
H       -1.1331  0.9897  -1.8647
H       -2.8459  1.4605  -0.4667
H       -3.6839  0.0114  -1.0366
H       -3.6691  0.0167  1.0556
H       -2.8752  -1.4668  0.5019
H       -1.6440  0.6347  2.0410
H       -1.0721  -0.9731  1.8225
H       1.6082  -0.6283  -1.9553
H       1.0743  0.9797  -1.7467
H       3.6282  0.0262  -1.0989
H       2.8623  1.4495  -0.4166
H       2.9899  -1.4877  0.5206
H       3.7901  0.0220  1.0394
H       1.2139  -0.9233  1.9108
H       1.7713  0.6697  1.9999
H       -1.6770  -0.6211  -2.0849
