27

Co      0.0741  -0.0061  0.0389
Cl      -0.0063  -2.3157  -0.2158
Cl      -0.0067  2.3198  0.2118
N       -1.3971  0.2003  -1.3277
N       -1.4102  -0.2045  1.3644
N       1.4086  0.1861  -1.3567
N       1.2645  -0.1899  1.2463
C       -2.7992  0.4194  -0.6917
C       -2.7995  -0.4130  0.6745
C       2.7928  0.4321  -0.7122
C       2.6948  -0.3958  0.6558
H       -1.2490  0.8558  -2.0715
H       -2.9376  1.4771  -0.5248
H       -3.5571  0.0628  -1.3877
H       -3.5718  -0.0887  1.3691
H       -2.9096  -1.4693  0.4896
H       -1.4359  0.7255  1.7692
H       -1.3108  -0.8735  2.1128
H       1.4168  -0.7559  -1.7291
H       1.2262  0.8297  -2.1073
H       3.5672  0.0555  -1.3712
H       2.9313  1.4964  -0.5587
H       2.8053  -1.4560  0.4548
H       3.4052  -0.1006  1.4311
H       1.0869  -0.8862  1.9425
H       1.2526  0.7147  1.6853
H       -1.4035  -0.7398  -1.7247
