27

Co      0.0000  -0.0488  -0.0034
Cl      0.0002  -2.3111  -0.2217
Cl      -0.0001  2.3785  0.2286
N       -1.5602  0.1019  -1.3809
N       -1.5602  -0.0919  1.3775
N       1.5602  0.1056  -1.3809
N       1.5602  -0.0952  1.3775
C       -2.7834  0.4579  -0.6337
C       -2.7837  -0.4572  0.6371
C       2.7835  0.4578  -0.6339
C       2.7837  -0.4567  0.6373
H       -1.0621  0.9177  -1.8605
H       -2.8198  1.5137  -0.4158
H       -3.7257  0.1740  -1.1131
H       -3.7257  -0.1662  1.1166
H       -2.8205  -1.5129  0.4259
H       -1.6784  0.7342  1.9328
H       -1.0996  -0.8509  1.9308
H       1.7018  -0.6708  -2.0234
H       1.0623  0.9211  -1.8614
H       3.7257  0.1654  -1.1133
H       2.8237  1.5099  -0.4202
H       2.8245  -1.5088  0.4303
H       3.7256  -0.1571  1.1168
H       1.1039  -0.8538  1.9318
H       1.6744  0.7349  1.9363
H       -1.7056  -0.6706  -2.0201
