27

Co      0.0000  -0.0061  0.0389
Cl      0.0002  -2.3157  -0.2158
Cl      -0.0001  2.3198  0.2118
N       -1.3831  0.2023  -1.2885
N       -1.3962  -0.2065  1.3252
N       1.4616  0.1984  -1.3621
N       1.3176  -0.2022  1.2516
C       -2.7478  0.3585  -0.6624
C       -2.7480  -0.3521  0.6452
C       2.7970  0.3732  -0.6822
C       2.6989  -0.3369  0.6258
H       -1.3312  0.8875  -2.0298
H       -2.8180  1.4190  -0.4788
H       -3.5601  0.0632  -1.3057
H       -3.5748  -0.0891  1.2870
H       -2.7900  -1.4084  0.4436
H       -1.2945  0.7316  1.7245
H       -1.3930  -0.9052  2.0711
H       1.3639  -0.7588  -1.7201
H       1.4295  0.8638  -2.1325
H       3.6484  0.0612  -1.2666
H       2.8634  1.4375  -0.5100
H       2.7375  -1.3971  0.4062
H       3.4864  -0.1062  1.3265
H       1.2903  -0.9203  1.9677
H       1.1998  0.7176  1.6763
H       -1.2620  -0.7459  -1.6800
