27

Co      -0.0250  -0.0488  -0.0034
Cl      0.0002  -2.3002  -0.2142
Cl      -0.0001  2.3676  0.2211
N       -1.5340  0.1462  -1.3364
N       -1.4555  -0.1362  1.2593
N       1.4965  0.1598  -1.3629
N       1.5750  -0.1494  1.4332
C       -2.8205  0.4176  -0.6253
C       -2.7717  -0.4022  0.6090
C       2.7715  0.3983  -0.6149
C       2.8208  -0.4119  0.6379
H       -1.2573  0.9270  -1.9082
H       -2.9581  1.4588  -0.3813
H       -3.5579  0.1225  -1.3698
H       -3.4740  -0.1245  1.4081
H       -2.9097  -1.4433  0.3571
H       -1.3136  0.7743  1.7054
H       -1.1966  -0.8798  1.8753
H       1.3954  -0.6882  -1.9128
H       1.2413  0.9782  -1.8918
H       3.5150  0.1274  -1.3637
H       2.8955  1.4395  -0.3612
H       2.9454  -1.4531  0.4057
H       3.6034  -0.1093  1.3279
H       1.3766  -0.8913  2.0653
H       1.4662  0.7670  1.8699
H       -1.4344  -0.7255  -1.8368
