27

Co      0.0000  0.0000  0.0000
Cl      0.0002  -2.3004  -0.2234
Cl      -0.0001  2.3004  0.2235
N       -1.5413  0.1225  -1.4136
N       -1.5413  -0.1226  1.4135
N       1.5413  0.1262  -1.4136
N       1.5413  -0.1259  1.4136
C       -2.7533  0.4384  -0.6174
C       -2.7535  -0.4377  0.6174
C       2.7534  0.4383  -0.6176
C       2.7535  -0.4372  0.6176
H       -1.1420  0.8505  -2.0103
H       -2.7819  1.4806  -0.3314
H       -3.6481  0.2134  -1.1821
H       -3.6526  -0.2123  1.1778
H       -2.7826  -1.4799  0.3314
H       -1.3855  0.8113  1.8169
H       -1.1425  -0.8510  2.0098
H       1.3775  -0.8119  -1.8199
H       1.1422  0.8539  -2.0068
H       3.6481  0.2092  -1.1823
H       2.7858  1.4769  -0.3357
H       2.7866  -1.4758  0.3358
H       3.6481  -0.2077  1.1824
H       1.1424  -0.8540  2.0064
H       1.3769  0.8120  1.8203
H       -1.3812  -0.8116  -1.8166
