27

Co      0.0000  -0.0488  -0.0034
Cl      0.0002  -2.3111  -0.2217
Cl      -0.0001  2.3785  0.2286
N       -1.5652  0.1327  -1.4034
N       -1.5652  -0.1227  1.3999
N       1.5652  0.1364  -1.4033
N       1.5652  -0.1260  1.3999
C       -2.7875  0.4367  -0.6157
C       -2.7877  -0.4360  0.6191
C       2.7875  0.4366  -0.6159
C       2.7877  -0.4355  0.6193
H       -1.1474  0.8910  -1.9613
H       -2.8280  1.4789  -0.3314
H       -3.6738  0.2031  -1.1907
H       -3.6782  -0.1953  1.1897
H       -2.8286  -1.4782  0.3416
H       -1.3908  0.8364  1.7646
H       -1.1849  -0.8242  2.0315
H       1.4097  -0.7731  -1.8552
H       1.1476  0.8944  -1.9578
H       3.6737  0.1990  -1.1908
H       2.8319  1.4752  -0.3358
H       2.8327  -1.4741  0.3459
H       3.6737  -0.1906  1.1943
H       1.1848  -0.8271  2.0281
H       1.3823  0.8371  1.7680
H       -1.4135  -0.7728  -1.8518
