27

Co      0.0000  0.0000  0.0000
Cl      0.0002  -2.2843  -0.2195
Cl      -0.0001  2.2843  0.2196
N       -1.3913  0.1384  -1.3501
N       -1.3913  -0.1385  1.3500
N       1.3913  0.1383  -1.3501
N       1.3913  -0.1380  1.3501
C       -2.7011  0.3975  -0.6482
C       -2.7014  -0.3968  0.6481
C       2.7012  0.3975  -0.6483
C       2.7013  -0.3964  0.6484
H       -1.4419  0.8736  -2.0735
H       -2.6797  1.4609  -0.4621
H       -3.5371  0.1877  -1.2944
H       -3.5325  -0.1866  1.2991
H       -2.6804  -1.4602  0.4622
H       -1.6910  0.6607  1.9422
H       -1.4423  -0.8741  2.0730
H       1.6957  -0.6614  -1.9415
H       1.4421  0.8733  -2.0738
H       3.5371  0.1873  -1.2945
H       2.6798  1.4609  -0.4628
H       2.6807  -1.4598  0.4628
H       3.5370  -0.1858  1.2947
H       1.4422  -0.8733  2.0734
H       1.6952  0.6615  1.9419
H       -1.6958  -0.6611  -1.9419
