27

Co      0.0000  -0.0488  -0.0034
Cl      0.0002  -2.2667  -0.2200
Cl      -0.0001  2.3341  0.2269
N       -1.5644  0.0996  -1.3760
N       -1.5644  -0.0896  1.3725
N       1.5645  0.1033  -1.3759
N       1.5644  -0.0929  1.3726
C       -2.7127  0.4342  -0.6084
C       -2.7129  -0.4335  0.6117
C       2.7128  0.4342  -0.6085
C       2.7129  -0.4331  0.6120
H       -1.0946  0.9221  -1.8573
H       -2.7794  1.4928  -0.4023
H       -3.6860  0.1172  -1.0268
H       -3.6860  -0.1094  1.0303
H       -2.7800  -1.4893  0.4124
H       -1.6878  0.7325  1.9329
H       -1.1320  -0.8553  1.9275
H       1.7112  -0.6692  -2.0235
H       1.0948  0.9255  -1.8582
H       3.6860  0.1087  -1.0270
H       2.7832  1.4863  -0.4066
H       2.7840  -1.4852  0.4168
H       3.6859  -0.1004  1.0305
H       1.1364  -0.8583  1.9286
H       1.6838  0.7333  1.9363
H       -1.7150  -0.6689  -2.0201
