27

Co      0.0000  0.0488  0.0034
Cl      0.0002  -2.2750  -0.2101
Cl      -0.0001  2.2077  0.2034
N       -1.3942  0.1712  -1.3468
N       -1.3942  -0.1814  1.3501
N       1.3942  0.1674  -1.3468
N       1.3942  -0.1772  1.3502
C       -2.7535  0.3367  -0.6643
C       -2.7537  -0.3360  0.6609
C       2.7535  0.3367  -0.6644
C       2.7537  -0.3356  0.6611
H       -1.5639  0.9380  -2.0672
H       -2.6906  1.4039  -0.4938
H       -3.6066  0.1550  -1.3011
H       -3.6020  -0.1607  1.3024
H       -2.6912  -1.4032  0.4837
H       -1.5645  0.5802  2.0176
H       -1.5273  -1.0059  1.9960
H       1.5460  -0.6448  -1.9256
H       1.5641  0.9340  -2.0712
H       3.6066  0.1584  -1.3012
H       2.6869  1.4076  -0.4907
H       2.6878  -1.4065  0.4806
H       3.6065  -0.1636  1.2980
H       1.5272  -1.0014  2.0002
H       1.5724  0.5809  2.0135
H       -1.5423  -0.6445  -1.9297
