27

Co      0.0000  0.0488  0.0034
Cl      0.0002  -2.3551  -0.2246
Cl      -0.0001  2.2879  0.2180
N       -1.4456  0.1735  -1.2901
N       -1.4456  -0.1838  1.2933
N       1.4456  0.1735  -1.2900
N       1.4456  -0.1833  1.2934
C       -2.7082  0.4164  -0.6869
C       -2.7084  -0.4157  0.6835
C       2.7083  0.4164  -0.6870
C       2.7084  -0.4153  0.6837
H       -1.3118  0.7753  -2.1052
H       -2.7669  1.4768  -0.4872
H       -3.5071  0.1574  -1.3652
H       -3.5071  -0.1630  1.3620
H       -2.7676  -1.4761  0.4771
H       -1.4533  0.7441  1.6939
H       -1.2752  -0.8432  2.0340
H       1.4266  -0.8087  -1.6056
H       1.3120  0.7750  -2.1010
H       3.5071  0.1614  -1.3682
H       2.7642  1.4769  -0.4878
H       2.7650  -1.4758  0.4778
H       3.5071  -0.1666  1.3650
H       1.2707  -0.8424  2.0300
H       1.4530  0.7448  1.6935
H       -1.4266  -0.8084  -1.6060
