27

Co      0.0741  0.0000  0.0000
Cl      -0.0063  -2.2451  -0.2142
Cl      -0.0067  2.2451  0.2143
N       -1.4829  0.1475  -1.3806
N       -1.4829  -0.1476  1.3805
N       1.4158  0.1370  -1.3360
N       1.4158  -0.1367  1.3360
C       -2.7600  0.4079  -0.6394
C       -2.7602  -0.4072  0.6394
C       2.7045  0.4058  -0.6402
C       2.7047  -0.4047  0.6403
H       -1.3348  0.8885  -2.0367
H       -2.7971  1.4626  -0.4232
H       -3.6148  0.1562  -1.2461
H       -3.6148  -0.1551  1.2463
H       -2.7978  -1.4619  0.4232
H       -1.5526  0.7142  1.8913
H       -1.3352  -0.8891  2.0362
H       1.4643  -0.7180  -1.8550
H       1.2138  0.8858  -1.9700
H       3.5366  0.1506  -1.2689
H       2.7455  1.4606  -0.4265
H       2.7463  -1.4595  0.4265
H       3.5365  -0.1490  1.2691
H       1.2139  -0.8858  1.9697
H       1.4638  0.7181  1.8554
H       -1.5529  -0.7146  -1.8910
