27

Co      0.0000  0.0061  -0.0389
Cl      0.0002  -2.3431  -0.2156
Cl      -0.0001  2.3390  0.2198
N       -1.5534  0.1622  -1.3934
N       -1.5403  -0.1582  1.3565
N       1.4749  0.1621  -1.3197
N       1.6188  -0.1577  1.4301
C       -2.7591  0.3729  -0.6106
C       -2.7593  -0.3779  0.6278
C       2.7101  0.3581  -0.5911
C       2.8084  -0.3922  0.6476
H       -1.4377  0.9399  -2.0206
H       -2.8380  1.4283  -0.4135
H       -3.6418  0.0742  -1.1662
H       -3.6270  -0.0461  1.1851
H       -2.8673  -1.4346  0.4487
H       -1.5840  0.6863  1.8965
H       -1.3768  -0.9233  1.9783
H       1.5188  -0.6603  -1.8958
H       1.3397  0.9593  -1.9177
H       3.5534  0.0836  -1.2056
H       2.7890  1.4108  -0.3798
H       2.9167  -1.4490  0.4837
H       3.7153  -0.0354  1.1460
H       1.4749  -0.9029  2.0818
H       1.6819  0.7017  1.9404
H       -1.6170  -0.6728  -1.9404
