27

Co      0.0000  0.0000  0.0000
Cl      0.0002  -2.3215  -0.2213
Cl      -0.0001  2.3215  0.2214
N       -1.3621  0.1760  -1.3065
N       -1.3621  -0.1762  1.3064
N       1.3621  0.1760  -1.3064
N       1.3621  -0.1757  1.3065
C       -2.7852  0.4027  -0.6785
C       -2.7854  -0.4020  0.6785
C       2.7853  0.4026  -0.6786
C       2.7854  -0.4015  0.6787
H       -1.3748  0.7955  -2.1533
H       -2.6673  1.4681  -0.4647
H       -3.6907  0.2491  -1.2632
H       -3.6862  -0.2480  1.2679
H       -2.6679  -1.4702  0.4647
H       -1.4351  0.7670  1.6810
H       -1.3752  -0.7961  2.1528
H       1.4399  -0.7677  -1.6803
H       1.3750  0.7952  -2.1491
H       3.6907  0.2531  -1.2633
H       2.6674  1.4710  -0.4653
H       2.6682  -1.4699  0.4654
H       3.6906  -0.2515  1.2635
H       1.3707  -0.7953  2.1487
H       1.4393  0.7678  1.6807
H       -1.4399  -0.7674  -1.6807
