27

Co      0.0741  0.0427  0.0422
Cl      -0.0063  -2.2658  -0.2121
Cl      -0.0067  2.2026  0.2014
N       -1.4180  0.1701  -1.2933
N       -1.4311  -0.1844  1.3334
N       1.4294  0.1559  -1.3223
N       1.2854  -0.1698  1.2152
C       -2.7731  0.3824  -0.6817
C       -2.7733  -0.3759  0.6612
C       2.7666  0.3951  -0.7022
C       2.6686  -0.3588  0.6425
H       -1.3332  0.8802  -2.0062
H       -2.8323  1.4564  -0.5635
H       -3.6576  0.0417  -1.2118
H       -3.6678  -0.0743  1.1943
H       -2.8043  -1.4459  0.5183
H       -1.6514  0.5973  1.9605
H       -1.3579  -0.9653  1.9768
H       1.6098  -0.6916  -1.8329
H       1.3104  0.8541  -2.0464
H       3.6677  0.0300  -1.1953
H       2.8260  1.4729  -0.5975
H       2.7001  -1.4326  0.4835
H       3.5057  -0.0818  1.2518
H       1.1385  -0.9780  1.8109
H       1.4726  0.5864  1.8766
H       -1.5965  -0.6755  -1.8284
