27

Co      0.0250  0.0427  0.0422
Cl      0.0002  -2.3493  -0.2192
Cl      -0.0001  2.2862  0.2084
N       -1.3704  0.1705  -1.3314
N       -1.3835  -0.1848  1.3715
N       1.4080  0.1530  -1.3048
N       1.2639  -0.1669  1.1977
C       -2.7804  0.4027  -0.7120
C       -2.7806  -0.3963  0.6914
C       2.8296  0.4220  -0.7226
C       2.7315  -0.3857  0.6629
H       -1.2491  0.8852  -2.0246
H       -2.7973  1.4740  -0.5835
H       -3.6489  0.0989  -1.2831
H       -3.6591  -0.1315  1.2656
H       -2.7694  -1.4663  0.5382
H       -1.5970  0.5944  2.0065
H       -1.2738  -0.9702  1.9952
H       1.5848  -0.7084  -1.7938
H       1.2655  0.8296  -2.0452
H       3.6917  0.0970  -1.2895
H       2.8564  1.4998  -0.6011
H       2.7305  -1.4595  0.4871
H       3.5297  -0.1488  1.3460
H       1.0936  -0.9535  1.8097
H       1.4476  0.6032  1.8376
H       -1.5421  -0.6727  -1.8744
