27

Co      0.0490  0.0488  0.0034
Cl      -0.0063  -2.3107  -0.2229
Cl      -0.0067  2.2435  0.2163
N       -1.4009  0.1224  -1.2768
N       -1.4009  -0.1326  1.2801
N       1.3748  0.1256  -1.3323
N       1.3747  -0.1354  1.3357
C       -2.7292  0.4077  -0.6221
C       -2.7294  -0.4070  0.6187
C       2.6737  0.4011  -0.6320
C       2.6738  -0.4000  0.6287
H       -1.3970  0.8241  -2.0177
H       -2.7925  1.4575  -0.3955
H       -3.4415  0.1799  -1.4243
H       -3.4414  -0.1856  1.4210
H       -2.7931  -1.4568  0.3854
H       -1.5527  0.6891  1.8491
H       -1.3604  -0.8920  1.9465
H       1.4965  -0.7341  -1.8458
H       1.3580  0.8533  -2.0375
H       3.4087  0.1698  -1.4015
H       2.7272  1.4510  -0.4124
H       2.7280  -1.4499  0.4024
H       3.4087  -0.1749  1.3983
H       1.3211  -0.9207  1.9665
H       1.5230  0.6702  1.9337
H       -1.5260  -0.7534  -1.7612
