27

Co      0.0490  0.0000  0.0000
Cl      -0.0063  -2.3177  -0.2138
Cl      -0.0067  2.3178  0.2139
N       -1.3977  0.1719  -1.2567
N       -1.3977  -0.1720  1.2566
N       1.3716  0.1713  -1.3122
N       1.3715  -0.1711  1.3122
C       -2.7716  0.3801  -0.6669
C       -2.7718  -0.3794  0.6669
C       2.7161  0.3735  -0.6768
C       2.7162  -0.3724  0.6769
H       -1.2962  0.9080  -1.9402
H       -2.8282  1.4521  -0.5374
H       -3.6358  0.0525  -1.2302
H       -3.6312  -0.0514  1.2349
H       -2.8288  -1.4514  0.5374
H       -1.5804  0.6461  1.8282
H       -1.2966  -0.9086  1.9397
H       1.5595  -0.6271  -1.9087
H       1.2572  0.9334  -1.9638
H       3.6030  0.0461  -1.2074
H       2.7591  1.4493  -0.5506
H       2.7600  -1.4482  0.5507
H       3.6030  -0.0445  1.2076
H       1.2573  -0.9335  1.9634
H       1.5590  0.6272  1.9091
H       -1.5852  -0.6465  -1.8279
