27

Co      0.0250  0.0000  0.0000
Cl      0.0002  -2.2785  -0.2084
Cl      -0.0001  2.2786  0.2085
N       -1.4412  0.2230  -1.3267
N       -1.4412  -0.2231  1.3266
N       1.4003  0.2055  -1.2264
N       1.4002  -0.2052  1.2264
C       -2.7651  0.3440  -0.7125
C       -2.7653  -0.3433  0.7125
C       2.7651  0.3485  -0.7035
C       2.7653  -0.3474  0.7036
H       -1.6375  0.9147  -2.1364
H       -2.7222  1.4169  -0.5549
H       -3.5928  0.1579  -1.3863
H       -3.5883  -0.1568  1.3909
H       -2.7228  -1.4161  0.5550
H       -1.5423  0.6557  1.8094
H       -1.6379  -0.9152  2.1359
H       1.4917  -0.6791  -1.6843
H       1.5557  0.8787  -2.0495
H       3.5473  0.1703  -1.4348
H       2.7293  1.4252  -0.5382
H       2.7302  -1.4241  0.5382
H       3.5472  -0.1687  1.4349
H       1.5515  -0.8788  2.0491
H       1.4911  0.6792  1.6847
H       -1.5471  -0.6560  -1.8091
