27

Co      -0.0741  -0.0488  -0.0034
Cl      0.0068  -2.2166  -0.2072
Cl      0.0064  2.2840  0.2140
N       -1.4700  0.1508  -1.3205
N       -1.4700  -0.1408  1.3170
N       1.5371  0.1611  -1.3650
N       1.5371  -0.1507  1.3616
C       -2.7742  0.4042  -0.6384
C       -2.7744  -0.4035  0.6418
C       2.8299  0.4061  -0.6379
C       2.8300  -0.4050  0.6413
H       -1.2510  0.9319  -1.9154
H       -2.8342  1.4589  -0.4277
H       -3.5943  0.1353  -1.2809
H       -3.5942  -0.1275  1.2844
H       -2.8349  -1.4582  0.4379
H       -1.4996  0.7372  1.7976
H       -1.2885  -0.8651  1.9857
H       1.6154  -0.6707  -1.9200
H       1.3724  0.9341  -1.9826
H       3.6725  0.1402  -1.2584
H       2.8861  1.4609  -0.4257
H       2.8869  -1.4598  0.4358
H       3.6724  -0.1319  1.2619
H       1.4096  -0.8668  2.0529
H       1.5880  0.7348  1.8329
H       -1.5268  -0.6736  -1.8848
