27

Co      -0.0250  0.0000  0.0000
Cl      0.0002  -2.2932  -0.2234
Cl      -0.0001  2.2933  0.2235
N       -1.4993  0.1109  -1.3061
N       -1.4993  -0.1110  1.3060
N       1.5403  0.1282  -1.4062
N       1.5402  -0.1279  1.4062
C       -2.7581  0.4430  -0.6081
C       -2.7583  -0.4423  0.6081
C       2.7582  0.4385  -0.6173
C       2.7583  -0.4374  0.6174
H       -1.0723  0.8154  -1.9263
H       -2.8055  1.4853  -0.3198
H       -3.6039  0.2109  -1.2312
H       -3.6083  -0.2098  1.2268
H       -2.8061  -1.4846  0.3198
H       -1.3296  0.8370  1.6837
H       -1.0728  -0.8159  1.9259
H       1.3807  -0.8148  -1.8073
H       1.1545  0.8507  -2.0093
H       3.6493  0.2022  -1.1858
H       2.7957  1.4770  -0.3378
H       2.7965  -1.4759  0.3378
H       3.6493  -0.2006  1.1860
H       1.1546  -0.8508  2.0090
H       1.3802  0.8149  1.8077
H       -1.3253  -0.8373  -1.6833
