27

Co      -0.0250  0.0061  -0.0389
Cl      0.0002  -2.2523  -0.2085
Cl      -0.0001  2.2483  0.2127
N       -1.4896  0.1462  -1.3094
N       -1.4765  -0.1422  1.2725
N       1.4521  0.1597  -1.3358
N       1.5960  -0.1554  1.4463
C       -2.8020  0.4046  -0.6266
C       -2.8022  -0.4096  0.6438
C       2.7530  0.3853  -0.6162
C       2.8513  -0.4193  0.6727
H       -1.3199  0.8921  -1.9619
H       -2.8526  1.4572  -0.4070
H       -3.6180  0.1504  -1.2846
H       -3.6032  -0.1223  1.3036
H       -2.8819  -1.4663  0.4422
H       -1.5114  0.7220  1.7767
H       -1.2589  -0.8755  1.9196
H       1.5054  -0.6732  -1.8967
H       1.3038  0.9433  -1.9455
H       3.5751  0.1553  -1.2785
H       2.7900  1.4380  -0.3870
H       2.9176  -1.4761  0.4909
H       3.7370  -0.1071  1.2189
H       1.4390  -0.8870  2.1096
H       1.6685  0.7147  1.9412
H       -1.5444  -0.7084  -1.8206
