27

Co      0.0000  0.0000  0.0000
Cl      0.0002  -2.2733  -0.2121
Cl      -0.0001  2.2734  0.2122
N       -1.3462  0.1921  -1.3358
N       -1.3462  -0.1922  1.3357
N       1.3462  0.1882  -1.3357
N       1.3462  -0.1879  1.3357
C       -2.7373  0.4172  -0.6835
C       -2.7375  -0.4165  0.6835
C       2.7374  0.4172  -0.6836
C       2.7375  -0.4161  0.6837
H       -1.1952  0.8564  -2.0726
H       -2.8513  1.4729  -0.5034
H       -3.4998  0.0873  -1.3794
H       -3.4997  -0.0862  1.3795
H       -2.8520  -1.4750  0.5034
H       -1.3565  0.7409  1.7367
H       -1.1956  -0.8569  2.0721
H       1.3605  -0.7415  -1.7323
H       1.1954  0.8523  -2.0722
H       3.4997  0.0951  -1.3795
H       2.8477  1.4795  -0.5003
H       2.8485  -1.4784  0.5003
H       3.4997  -0.0935  1.3797
H       1.1911  -0.8524  2.0718
H       1.3600  0.7416  1.7326
H       -1.3567  -0.7412  -1.7364
