27

Co      -0.0490  -0.0488  -0.0034
Cl      0.0068  -2.2667  -0.2200
Cl      0.0064  2.3341  0.2269
N       -1.5553  0.1229  -1.4262
N       -1.5553  -0.1129  1.4227
N       1.5815  0.1233  -1.3706
N       1.5815  -0.1129  1.3672
C       -2.6759  0.4395  -0.5899
C       -2.6762  -0.4388  0.5933
C       2.7316  0.4460  -0.5802
C       2.7318  -0.4449  0.5837
H       -1.2193  0.8982  -1.9834
H       -2.8688  1.4797  -0.3455
H       -3.4646  0.0922  -1.2412
H       -3.4690  -0.0844  1.2402
H       -2.8694  -1.4761  0.3556
H       -1.5835  0.7878  1.8681
H       -1.2568  -0.8314  2.0537
H       1.6318  -0.7440  -1.8737
H       1.2587  0.8722  -1.9603
H       3.4972  0.0979  -1.2642
H       2.9380  1.4797  -0.3336
H       2.9388  -1.4786  0.3437
H       3.4972  -0.0896  1.2677
H       1.2959  -0.8050  2.0307
H       1.6044  0.8081  1.7865
H       -1.6062  -0.7242  -1.9553
