27

Co      0.0741  0.0000  0.0000
Cl      -0.0063  -2.2823  -0.2159
Cl      -0.0067  2.2823  0.2160
N       -1.4575  0.1475  -1.2977
N       -1.4575  -0.1476  1.2976
N       1.3904  0.1370  -1.2531
N       1.3903  -0.1367  1.2531
C       -2.8035  0.3992  -0.6430
C       -2.8037  -0.3985  0.6430
C       2.7480  0.3972  -0.6438
C       2.7481  -0.3961  0.6439
H       -1.5297  0.8678  -2.0473
H       -2.8112  1.4626  -0.4629
H       -3.6123  0.1666  -1.3232
H       -3.6078  -0.1655  1.3279
H       -2.8119  -1.4619  0.4629
H       -1.7580  0.6613  1.8773
H       -1.5301  -0.8684  2.0468
H       1.6742  -0.6651  -1.8409
H       1.4087  0.8651  -1.9806
H       3.5341  0.1609  -1.3460
H       2.7596  1.4606  -0.4662
H       2.7604  -1.4595  0.4663
H       3.5340  -0.1593  1.3461
H       1.4089  -0.8651  1.9803
H       1.6737  0.6652  1.8413
H       -1.7628  -0.6617  -1.8770
