27

Co      0.0250  0.0427  0.0422
Cl      0.0002  -2.2729  -0.2121
Cl      -0.0001  2.2098  0.2014
N       -1.4376  0.1737  -1.4322
N       -1.3721  -0.1880  1.3987
N       1.3966  0.1562  -1.3320
N       1.3311  -0.1701  1.2986
C       -2.8016  0.4094  -0.7266
C       -2.7528  -0.3883  0.6864
C       2.8017  0.4139  -0.7176
C       2.7528  -0.3924  0.6775
H       -1.3350  0.8930  -2.1251
H       -2.8018  1.4807  -0.6021
H       -3.7211  0.1071  -1.2305
H       -3.6429  -0.1495  1.2522
H       -2.7247  -1.4582  0.5225
H       -1.5857  0.5742  2.0611
H       -1.2616  -0.9977  1.9926
H       1.5736  -0.6881  -1.8485
H       1.2533  0.8571  -2.0426
H       3.6755  0.1150  -1.2761
H       2.8118  1.4918  -0.5853
H       2.7349  -1.4662  0.5057
H       3.6018  -0.1569  1.2934
H       1.1796  -0.9613  1.9102
H       1.5345  0.5977  1.9364
H       -1.6290  -0.6672  -1.9733
