27

Co      0.0000  -0.0488  -0.0034
Cl      0.0002  -2.2558  -0.2125
Cl      -0.0001  2.3232  0.2194
N       -1.4863  0.1171  -1.3392
N       -1.4863  -0.1072  1.3358
N       1.4863  0.1171  -1.3392
N       1.4863  -0.1067  1.3358
C       -2.7578  0.4309  -0.6380
C       -2.7581  -0.4302  0.6413
C       2.7579  0.4308  -0.6381
C       2.7581  -0.4297  0.6415
H       -1.1400  0.9726  -1.8128
H       -2.8725  1.4856  -0.4502
H       -3.5629  0.1097  -1.2789
H       -3.5628  -0.1019  1.2824
H       -2.8731  -1.4849  0.4603
H       -1.6611  0.6749  1.9657
H       -1.1775  -0.9058  1.8830
H       1.6883  -0.6115  -2.0525
H       1.1402  0.9723  -1.8175
H       3.5628  0.1049  -1.2790
H       2.8726  1.4856  -0.4509
H       2.8734  -1.4845  0.4610
H       3.5628  -0.0966  1.2825
H       1.1818  -0.9050  1.8878
H       1.6608  0.6756  1.9654
H       -1.6883  -0.6113  -2.0529
