27

Co      0.0000  0.0000  0.0000
Cl      0.0002  -2.3286  -0.2213
Cl      -0.0001  2.3287  0.2214
N       -1.3625  0.1763  -1.3407
N       -1.4410  -0.1764  1.4142
N       1.4410  0.1762  -1.4142
N       1.3624  -0.1759  1.3406
C       -2.7513  0.3974  -0.6554
C       -2.8007  -0.4115  0.6750
C       2.8005  0.4121  -0.6752
C       2.7516  -0.3963  0.6556
H       -1.3001  0.8426  -2.1017
H       -2.6893  1.4493  -0.3935
H       -3.5776  0.2542  -1.3469
H       -3.6660  -0.2433  1.3078
H       -2.7390  -1.4661  0.4279
H       -1.3703  0.7962  1.7523
H       -1.3987  -0.8235  2.2043
H       1.3706  -0.7968  -1.7516
H       1.3985  0.8226  -2.2006
H       3.6660  0.2484  -1.3078
H       2.7385  1.4669  -0.4285
H       2.6902  -1.4511  0.3942
H       3.5775  -0.2567  1.3472
H       1.2961  -0.8423  2.0972
H       1.2719  0.7822  1.7078
H       -1.2724  -0.7818  -1.7078
