27

Co      0.0741  0.0427  0.0422
Cl      -0.0063  -2.3101  -0.2138
Cl      -0.0067  2.2470  0.2031
N       -1.4419  0.1752  -1.2814
N       -1.4550  -0.1895  1.3214
N       1.4533  0.1610  -1.3103
N       1.3093  -0.1749  1.2033
C       -2.8072  0.3807  -0.6817
C       -2.8075  -0.3742  0.6612
C       2.8008  0.3934  -0.7022
C       2.7028  -0.3571  0.6425
H       -1.3571  0.8871  -1.9926
H       -2.8784  1.4547  -0.5686
H       -3.6832  0.0280  -1.2221
H       -3.6934  -0.0607  1.2046
H       -2.8504  -1.4442  0.5234
H       -1.6702  0.5905  1.9519
H       -1.3818  -0.9721  1.9631
H       1.6286  -0.6848  -1.8243
H       1.3343  0.8609  -2.0327
H       3.6933  0.0163  -1.2056
H       2.8721  1.4712  -0.6026
H       2.7462  -1.4309  0.4886
H       3.5313  -0.0681  1.2621
H       1.1624  -0.9848  1.7973
H       1.4914  0.5796  1.8680
H       -1.6153  -0.6687  -1.8199
