27

Co      0.0490  -0.0061  0.0389
Cl      -0.0063  -2.2874  -0.2180
Cl      -0.0067  2.2916  0.2140
N       -1.4798  0.1437  -1.3002
N       -1.4929  -0.1479  1.3369
N       1.5322  0.1469  -1.4293
N       1.3882  -0.1507  1.3189
C       -2.7941  0.4113  -0.6434
C       -2.7944  -0.4049  0.6263
C       2.7877  0.4195  -0.6730
C       2.6897  -0.3832  0.6167
H       -1.2870  0.8708  -1.9589
H       -2.8643  1.4680  -0.4391
H       -3.6103  0.1314  -1.2885
H       -3.6250  -0.1572  1.2699
H       -2.8364  -1.4575  0.4039
H       -1.5582  0.7118  1.8434
H       -1.3488  -0.8885  2.0002
H       1.5945  -0.7194  -1.9277
H       1.3462  0.8803  -2.0818
H       3.6659  0.1113  -1.2265
H       2.8482  1.4763  -0.4904
H       2.7222  -1.4359  0.3866
H       3.5039  -0.1564  1.2864
H       1.2113  -0.9368  1.9171
H       1.4303  0.6782  1.8839
H       -1.5257  -0.7261  -1.7989
