27

Co      0.0250  0.0000  0.0000
Cl      0.0002  -2.2823  -0.2159
Cl      -0.0001  2.2823  0.2160
N       -1.4541  0.1539  -1.3255
N       -1.4541  -0.1541  1.3254
N       1.4132  0.1402  -1.2253
N       1.4131  -0.1399  1.2253
C       -2.7757  0.4008  -0.6576
C       -2.7759  -0.4001  0.6576
C       2.7757  0.4053  -0.6486
C       2.7759  -0.4042  0.6487
H       -1.3646  0.8728  -2.0328
H       -2.7640  1.4690  -0.4905
H       -3.6930  0.1374  -1.1808
H       -3.6884  -0.1363  1.1855
H       -2.7646  -1.4683  0.4905
H       -1.6706  0.6758  1.8761
H       -1.3650  -0.8734  2.0324
H       1.6161  -0.6992  -1.7548
H       1.2829  0.8407  -1.9466
H       3.6474  0.1416  -1.2265
H       2.7777  1.4736  -0.4775
H       2.7786  -1.4725  0.4775
H       3.6474  -0.1400  1.2266
H       1.2830  -0.8407  1.9462
H       1.6156  0.6993  1.7552
H       -1.6753  -0.6761  -1.8758
