27

Co      -0.0741  -0.0488  -0.0034
Cl      0.0068  -2.3111  -0.2217
Cl      0.0064  2.3785  0.2286
N       -1.5587  0.1211  -1.3642
N       -1.5587  -0.1112  1.3607
N       1.6259  0.1352  -1.4087
N       1.6258  -0.1248  1.4053
C       -2.7101  0.4400  -0.5854
C       -2.7103  -0.4393  0.5887
C       2.7657  0.4420  -0.5848
C       2.7659  -0.4409  0.5882
H       -1.2022  0.8891  -1.9265
H       -2.9217  1.4803  -0.3438
H       -3.4674  0.0808  -1.2742
H       -3.4719  -0.0730  1.2732
H       -2.9223  -1.4767  0.3539
H       -1.5727  0.7923  1.7981
H       -1.2397  -0.8223  1.9968
H       1.6802  -0.7258  -1.9243
H       1.3236  0.8950  -1.9899
H       3.5456  0.0820  -1.2517
H       2.9773  1.4757  -0.3455
H       2.9781  -1.4746  0.3556
H       3.5455  -0.0737  1.2552
H       1.3608  -0.8277  2.0603
H       1.6528  0.7899  1.8372
H       -1.5954  -0.7287  -1.8853
