27

Co      0.0000  -0.0488  -0.0034
Cl      0.0002  -2.2682  -0.2089
Cl      -0.0001  2.3355  0.2157
N       -1.5898  0.1309  -1.3929
N       -1.5898  -0.1209  1.3895
N       1.5898  0.1309  -1.3928
N       1.5898  -0.1205  1.3895
C       -2.8183  0.4362  -0.6344
C       -2.8185  -0.4355  0.6377
C       2.8184  0.4361  -0.6345
C       2.8185  -0.4350  0.6379
H       -1.0250  1.0123  -1.7695
H       -2.9933  1.4821  -0.4225
H       -3.6486  0.0667  -1.2258
H       -3.6531  -0.0589  1.2248
H       -2.9940  -1.4814  0.4326
H       -1.5236  0.7088  1.9591
H       -1.0624  -0.9455  1.8398
H       1.5462  -0.6454  -2.0459
H       1.0252  1.0120  -1.7742
H       3.6486  0.0619  -1.2260
H       2.9934  1.4822  -0.4232
H       2.9943  -1.4811  0.4333
H       3.6485  -0.0536  1.2295
H       1.0668  -0.9447  1.8446
H       1.5188  0.7095  1.9588
H       -1.5462  -0.6452  -2.0463
