27

Co      0.0000  0.0000  0.0000
Cl      0.0002  -2.2451  -0.2142
Cl      -0.0001  2.2451  0.2143
N       -1.3819  0.1394  -1.3384
N       -1.4605  -0.1396  1.4120
N       1.4605  0.1394  -1.4120
N       1.3819  -0.1391  1.3384
C       -2.7443  0.4249  -0.6553
C       -2.7936  -0.4389  0.6749
C       2.7935  0.4396  -0.6751
C       2.7445  -0.4237  0.6555
H       -1.1688  0.8859  -1.9686
H       -2.7411  1.4767  -0.4158
H       -3.5456  0.2289  -1.3531
H       -3.6339  -0.2180  1.3140
H       -2.7908  -1.4936  0.4502
H       -1.5293  0.7316  1.9029
H       -1.2674  -0.8668  2.0712
H       1.5295  -0.7322  -1.9022
H       1.2671  0.8659  -2.0719
H       3.6339  0.2187  -1.3140
H       2.7903  1.4943  -0.4508
H       2.7420  -1.4785  0.4165
H       3.5455  -0.2270  1.3534
H       1.1691  -0.8856  1.9685
H       1.4308  0.7176  1.8584
H       -1.4313  -0.7173  -1.8584
