27

Co      0.0490  0.0488  0.0034
Cl      -0.0063  -2.3586  -0.2171
Cl      -0.0067  2.2913  0.2105
N       -1.4281  0.1680  -1.3315
N       -1.4281  -0.1782  1.3347
N       1.4019  0.1675  -1.3870
N       1.4019  -0.1773  1.3904
C       -2.7760  0.4027  -0.7167
C       -2.7762  -0.4020  0.7133
C       2.7205  0.3961  -0.7266
C       2.7206  -0.3950  0.7233
H       -1.3812  0.9158  -1.9995
H       -2.8150  1.4592  -0.5233
H       -3.4611  0.2041  -1.5716
H       -3.4610  -0.2098  1.5684
H       -2.8157  -1.4613  0.5132
H       -1.5161  0.6144  1.9561
H       -1.3446  -0.9836  1.9283
H       1.4637  -0.6594  -1.9491
H       1.3421  0.9411  -2.0231
H       3.4284  0.1977  -1.5517
H       2.7431  1.4593  -0.5365
H       2.7439  -1.4582  0.5264
H       3.4283  -0.2028  1.5485
H       1.3053  -1.0085  1.9520
H       1.4901  0.5955  2.0370
H       -1.4894  -0.6788  -1.8682
