27

Co      -0.0490  -0.0488  -0.0034
Cl      0.0068  -2.3073  -0.2142
Cl      0.0064  2.3747  0.2211
N       -1.5235  0.1587  -1.4159
N       -1.5235  -0.1488  1.4124
N       1.5497  0.1554  -1.3602
N       1.5496  -0.1450  1.3569
C       -2.7412  0.4119  -0.5907
C       -2.7415  -0.4112  0.5940
C       2.7969  0.4184  -0.5810
C       2.7970  -0.4173  0.5844
H       -1.1341  0.9427  -1.9584
H       -2.9731  1.4685  -0.4468
H       -3.6817  -0.0986  -0.9801
H       -3.6817  0.1065  0.9837
H       -2.9738  -1.4650  0.4569
H       -1.6333  0.7185  1.9082
H       -1.1716  -0.8759  2.0286
H       1.6899  -0.6748  -1.9100
H       1.1735  0.9130  -1.9390
H       3.7144  -0.0892  -1.0003
H       3.0415  1.4723  -0.4310
H       3.0423  -1.4712  0.4412
H       3.7143  0.0975  1.0038
H       1.2107  -0.8457  2.0094
H       1.6625  0.7389  1.8228
H       -1.6605  -0.6549  -1.9954
