27

Co      0.0000  -0.0488  -0.0034
Cl      0.0002  -2.2630  -0.2125
Cl      -0.0001  2.3303  0.2194
N       -1.5360  0.1247  -1.3797
N       -1.5360  -0.1148  1.3763
N       1.5360  0.1247  -1.3797
N       1.5360  -0.1143  1.3763
C       -2.7164  0.4031  -0.6174
C       -2.7167  -0.4024  0.6208
C       2.7165  0.4031  -0.6175
C       2.7167  -0.4020  0.6210
H       -1.2251  1.0030  -1.8366
H       -2.8613  1.4607  -0.4466
H       -3.5703  0.0441  -1.1765
H       -3.5703  -0.0362  1.1800
H       -2.8620  -1.4571  0.4567
H       -1.7156  0.6521  2.0290
H       -1.2625  -0.9362  1.9068
H       1.7427  -0.5887  -2.1158
H       1.2253  1.0027  -1.8412
H       3.5703  0.0393  -1.1766
H       2.8615  1.4579  -0.4472
H       2.8623  -1.4568  0.4573
H       3.5702  -0.0309  1.1802
H       1.2669  -0.9354  1.9116
H       1.7153  0.6528  2.0287
H       -1.7428  -0.5885  -2.1162
