27

Co      0.0000  0.0000  0.0000
Cl      0.0002  -2.2932  -0.2234
Cl      -0.0001  2.2933  0.2235
N       -1.5382  0.1157  -1.3393
N       -1.5382  -0.1158  1.3392
N       1.5383  0.1194  -1.3393
N       1.5382  -0.1191  1.3393
C       -2.7215  0.4106  -0.5776
C       -2.7217  -0.4099  0.5776
C       2.7216  0.4105  -0.5777
C       2.7217  -0.4094  0.5778
H       -1.3151  0.8523  -1.9769
H       -2.8188  1.4508  -0.2987
H       -3.5155  0.1624  -1.2633
H       -3.5200  -0.1613  1.2590
H       -2.8195  -1.4472  0.2987
H       -1.4601  0.7929  1.7803
H       -1.3156  -0.8528  1.9765
H       1.4520  -0.7935  -1.7834
H       1.3153  0.8557  -1.9734
H       3.5155  0.1583  -1.2635
H       2.8227  1.4442  -0.3031
H       2.8235  -1.4431  0.3031
H       3.5155  -0.1567  1.2636
H       1.3155  -0.8558  1.9731
H       1.4515  0.7936  1.7837
H       -1.4558  -0.7933  -1.7800
