27

Co      0.0000  -0.0488  -0.0034
Cl      0.0002  -2.2558  -0.2125
Cl      -0.0001  2.3232  0.2194
N       -1.5014  0.1552  -1.3312
N       -1.5014  -0.1453  1.3277
N       1.5014  0.1552  -1.3311
N       1.5014  -0.1448  1.3278
C       -2.7298  0.3798  -0.6127
C       -2.7300  -0.3791  0.6161
C       2.7298  0.3798  -0.6129
C       2.7300  -0.3787  0.6163
H       -1.3359  0.9391  -1.9373
H       -2.8230  1.4373  -0.4162
H       -3.5872  0.0729  -1.1900
H       -3.5872  -0.0651  1.1935
H       -2.8236  -1.4338  0.4263
H       -1.5418  0.7325  1.8116
H       -1.3734  -0.8723  2.0076
H       1.5690  -0.6692  -1.8984
H       1.3361  0.9388  -1.9376
H       3.5872  0.0725  -1.1901
H       2.8231  1.4345  -0.4168
H       2.8239  -1.4334  0.4269
H       3.5872  -0.0642  1.1936
H       1.3733  -0.8715  2.0079
H       1.5415  0.7332  1.8113
H       -1.5690  -0.6689  -1.8988
