27

Co      0.0000  0.0488  0.0034
Cl      0.0002  -2.2750  -0.2101
Cl      -0.0001  2.2077  0.2034
N       -1.3660  0.1684  -1.3637
N       -1.3660  -0.1786  1.3670
N       1.3660  0.1645  -1.3637
N       1.3660  -0.1744  1.3671
C       -2.7901  0.3621  -0.6896
C       -2.7903  -0.3613  0.6862
C       2.7901  0.3620  -0.6897
C       2.7903  -0.3609  0.6864
H       -1.5075  0.9268  -2.0841
H       -2.6849  1.4264  -0.5022
H       -3.6207  0.2254  -1.3771
H       -3.6161  -0.2311  1.3784
H       -2.6856  -1.4285  0.4921
H       -1.5363  0.5886  2.0260
H       -1.4710  -0.9947  2.0129
H       1.5179  -0.6532  -1.9340
H       1.5077  0.9227  -2.0881
H       3.6206  0.2288  -1.3773
H       2.6813  1.4330  -0.4991
H       2.6821  -1.4319  0.4890
H       3.6206  -0.2340  1.3740
H       1.4709  -0.9901  2.0170
H       1.5443  0.5893  2.0219
H       -1.5141  -0.6529  -1.9382
