27

Co      -0.0490  0.0061  -0.0389
Cl      0.0068  -2.2987  -0.2139
Cl      0.0064  2.2946  0.2181
N       -1.4301  0.1521  -1.4246
N       -1.4955  -0.1481  1.4613
N       1.4563  0.1488  -1.3690
N       1.5216  -0.1444  1.4058
C       -2.7321  0.3941  -0.5950
C       -2.7814  -0.4139  0.6318
C       2.7878  0.4006  -0.5853
C       2.8370  -0.4200  0.6222
H       -1.1404  0.9310  -2.0023
H       -2.7831  1.4459  -0.3815
H       -3.6896  0.0739  -1.0406
H       -3.7632  -0.0360  1.0203
H       -2.8615  -1.4697  0.4510
H       -1.5073  0.7291  1.9516
H       -1.1777  -0.8947  2.0632
H       1.4715  -0.7228  -1.8659
H       1.1798  0.9012  -1.9829
H       3.7222  0.0833  -1.0607
H       2.8515  1.4525  -0.3658
H       2.9300  -1.4759  0.4353
H       3.7958  -0.0450  1.0404
H       1.2168  -0.8645  2.0439
H       1.5364  0.7494  1.8663
H       -1.4421  -0.7008  -1.9513
