27

Co      -0.0490  -0.0427  -0.0422
Cl      0.0068  -2.3094  -0.2122
Cl      0.0064  2.3727  0.2231
N       -1.5191  0.1643  -1.3996
N       -1.5846  -0.1502  1.4329
N       1.5453  0.1610  -1.3440
N       1.6107  -0.1465  1.3774
C       -2.7023  0.3668  -0.5859
C       -2.7516  -0.3865  0.6261
C       2.7579  0.3733  -0.5763
C       2.8071  -0.3926  0.6165
H       -1.2962  1.0162  -1.9028
H       -2.8441  1.4087  -0.3407
H       -3.4908  0.0730  -1.2631
H       -3.5689  -0.0284  1.2416
H       -2.9224  -1.4297  0.4203
H       -1.4647  0.7520  1.8948
H       -1.3705  -0.9126  2.0344
H       1.4514  -0.6817  -1.8966
H       1.3356  0.9865  -1.8834
H       3.5235  0.0824  -1.2861
H       2.9096  1.4124  -0.3250
H       2.9881  -1.4358  0.4046
H       3.5970  -0.0373  1.2692
H       1.4096  -0.8824  2.0151
H       1.4894  0.7723  1.8094
H       -1.4220  -0.6598  -1.9820
