27

Co      0.0000  0.0000  0.0000
Cl      0.0002  -2.3338  -0.2176
Cl      -0.0001  2.3339  0.2177
N       -1.5102  0.1172  -1.3256
N       -1.5102  -0.1173  1.3255
N       1.5102  0.1171  -1.3255
N       1.5102  -0.1168  1.3255
C       -2.7920  0.4292  -0.6397
C       -2.7922  -0.4285  0.6396
C       2.7920  0.4291  -0.6398
C       2.7922  -0.4280  0.6399
H       -1.1824  0.9457  -1.8345
H       -2.9186  1.4839  -0.4604
H       -3.5885  0.0927  -1.2908
H       -3.5884  -0.0916  1.2909
H       -2.9192  -1.4832  0.4604
H       -1.6933  0.6361  2.0009
H       -1.1829  -0.9463  1.8340
H       1.6936  -0.6367  -2.0002
H       1.1826  0.9454  -1.8392
H       3.5884  0.0879  -1.2909
H       2.9187  1.4839  -0.4610
H       2.9195  -1.4828  0.4611
H       3.5884  -0.0863  1.2911
H       1.1872  -0.9455  1.8388
H       1.6931  0.6368  2.0006
H       -1.6936  -0.6364  -2.0006
