27

Co      -0.0741  -0.0488  -0.0034
Cl      0.0068  -2.2595  -0.2200
Cl      0.0064  2.3269  0.2269
N       -1.4866  0.1201  -1.3051
N       -1.4866  -0.1101  1.3017
N       1.5537  0.1341  -1.3497
N       1.5537  -0.1238  1.3463
C       -2.6982  0.4051  -0.5944
C       -2.6985  -0.4044  0.5977
C       2.7539  0.4070  -0.5938
C       2.7540  -0.4059  0.5972
H       -1.2903  0.8666  -1.9489
H       -2.7297  1.4588  -0.3538
H       -3.5669  0.1677  -1.1826
H       -3.5668  -0.1599  1.1861
H       -2.7303  -1.4553  0.3639
H       -1.5425  0.7903  1.7402
H       -1.3277  -0.7999  2.0191
H       1.6545  -0.7238  -1.8664
H       1.4117  0.8725  -2.0122
H       3.6451  0.1688  -1.1601
H       2.7852  1.4543  -0.3555
H       2.7861  -1.4532  0.3656
H       3.6450  -0.1605  1.1636
H       1.4488  -0.8053  2.0826
H       1.6271  0.7879  1.7793
H       -1.5697  -0.7267  -1.8274
