27

Co      0.0250  -0.0061  0.0389
Cl      0.0002  -2.3157  -0.2158
Cl      -0.0001  2.3198  0.2118
N       -1.4097  0.1755  -1.3699
N       -1.3442  -0.1797  1.3330
N       1.3687  0.1580  -1.2697
N       1.3032  -0.1618  1.2329
C       -2.8049  0.4101  -0.7201
C       -2.7561  -0.3890  0.6833
C       2.8050  0.4146  -0.7111
C       2.7561  -0.3931  0.6744
H       -1.2796  0.9090  -2.0408
H       -2.8219  1.4813  -0.5956
H       -3.6931  0.0973  -1.2618
H       -3.6149  -0.1330  1.2869
H       -2.7448  -1.4589  0.5261
H       -1.5344  0.6191  1.9406
H       -1.2433  -0.9464  1.9790
H       1.5492  -0.6690  -1.8155
H       1.1979  0.8731  -1.9583
H       3.6475  0.1052  -1.3075
H       2.8319  1.4925  -0.5788
H       2.7550  -1.4668  0.5093
H       3.5738  -0.1405  1.3281
H       1.1612  -0.9100  1.8966
H       1.4833  0.6425  1.8159
H       -1.6047  -0.6480  -1.9403
