27

Co      -0.0741  0.0000  0.0000
Cl      0.0068  -2.3376  -0.2251
Cl      0.0064  2.3376  0.2252
N       -1.4823  0.1173  -1.3084
N       -1.4823  -0.1175  1.3083
N       1.5495  0.1314  -1.3529
N       1.5494  -0.1311  1.3529
C       -2.7690  0.4287  -0.6214
C       -2.7692  -0.4280  0.6214
C       2.8246  0.4306  -0.6208
C       2.8248  -0.4295  0.6209
H       -1.2764  0.8285  -1.9874
H       -2.7701  1.4797  -0.3724
H       -3.6066  0.2211  -1.2705
H       -3.6065  -0.2200  1.2707
H       -2.7708  -1.4789  0.3724
H       -1.5466  0.7599  1.7839
H       -1.2768  -0.8291  1.9870
H       1.6317  -0.7574  -1.8226
H       1.3978  0.8344  -2.0508
H       3.6847  0.2222  -1.2480
H       2.8257  1.4779  -0.3741
H       2.8265  -1.4768  0.3742
H       3.6847  -0.2206  1.2482
H       1.3979  -0.8345  2.0505
H       1.6311  0.7575  1.8229
H       -1.5468  -0.7603  -1.7836
