27

Co      0.0000  0.0000  0.0000
Cl      0.0002  -2.3056  -0.2198
Cl      -0.0001  2.3056  0.2199
N       -1.5959  0.1337  -1.3659
N       -1.5959  -0.1338  1.3658
N       1.5959  0.1374  -1.3658
N       1.5958  -0.1371  1.3658
C       -2.7910  0.4020  -0.6005
C       -2.7912  -0.4012  0.6005
C       2.7911  0.4019  -0.6006
C       2.7912  -0.4008  0.6007
H       -1.4541  0.8655  -2.0393
H       -2.8276  1.4557  -0.3692
H       -3.6852  0.1527  -1.1604
H       -3.6851  -0.1516  1.1605
H       -2.8283  -1.4522  0.3692
H       -1.6756  0.7302  1.8626
H       -1.4545  -0.8661  2.0388
H       1.6721  -0.7308  -1.8656
H       1.4543  0.8690  -2.0358
H       3.6851  0.1486  -1.1605
H       2.8315  1.4492  -0.3736
H       2.8323  -1.4481  0.3736
H       3.6851  -0.1470  1.1607
H       1.4544  -0.8690  2.0355
H       1.6716  0.7309  1.8660
H       -1.6759  -0.7306  -1.8623
