27

Co      0.0250  0.0427  0.0422
Cl      0.0002  -2.3139  -0.2213
Cl      -0.0001  2.2507  0.2106
N       -1.4379  0.1420  -1.3054
N       -1.4510  -0.1563  1.3455
N       1.4755  0.1283  -1.2788
N       1.3314  -0.1422  1.1717
C       -2.7757  0.3988  -0.6582
C       -2.7759  -0.3923  0.6376
C       2.8248  0.4180  -0.6688
C       2.7268  -0.3817  0.6091
H       -1.4979  0.8403  -2.0716
H       -2.7928  1.4642  -0.4937
H       -3.5886  0.1448  -1.3228
H       -3.5988  -0.1774  1.3053
H       -2.7649  -1.4537  0.4485
H       -1.7732  0.6126  1.9856
H       -1.5227  -0.9253  2.0422
H       1.7572  -0.7265  -1.7768
H       1.5143  0.7885  -2.0884
H       3.6314  0.1391  -1.3292
H       2.8557  1.4835  -0.5151
H       2.7297  -1.4432  0.4011
H       3.4694  -0.1909  1.3857
H       1.3425  -0.9123  1.8529
H       1.6200  0.6214  1.8205
H       -1.7182  -0.6908  -1.8536
