27

Co      -0.0741  0.0061  -0.0389
Cl      0.0068  -2.2952  -0.2214
Cl      0.0064  2.2912  0.2255
N       -1.5209  0.1174  -1.3354
N       -1.5078  -0.1134  1.2985
N       1.5095  0.1315  -1.3063
N       1.6535  -0.1271  1.4168
C       -2.6937  0.4116  -0.5791
C       -2.6939  -0.4166  0.5962
C       2.7003  0.3988  -0.5588
C       2.7986  -0.4329  0.6154
H       -1.1397  0.8500  -1.9401
H       -2.7641  1.4546  -0.3019
H       -3.5808  0.1491  -1.1343
H       -3.5705  -0.1210  1.1488
H       -2.7934  -1.4609  0.3371
H       -1.3267  0.8257  1.6956
H       -1.0788  -0.8333  1.8979
H       1.3418  -0.7966  -1.7343
H       1.1629  0.8755  -1.9004
H       3.5706  0.1600  -1.1511
H       2.7706  1.4353  -0.2692
H       2.8982  -1.4735  0.3731
H       3.7325  -0.1118  1.0915
H       1.2981  -0.8191  2.0645
H       1.5049  0.8380  1.7789
H       -1.3551  -0.8121  -1.7395
