27

Co      0.0000  0.0000  0.0000
Cl      0.0002  -2.2771  -0.2195
Cl      -0.0001  2.2771  0.2196
N       -1.3452  0.1692  -1.2783
N       -1.4237  -0.1693  1.3518
N       1.4238  0.1691  -1.3519
N       1.3452  -0.1689  1.2783
C       -2.6854  0.3762  -0.6253
C       -2.7347  -0.3902  0.6449
C       2.7345  0.3909  -0.6450
C       2.6856  -0.3751  0.6255
H       -1.3038  0.8278  -2.0578
H       -2.6656  1.4309  -0.3752
H       -3.5164  0.1927  -1.2870
H       -3.6047  -0.1818  1.2478
H       -2.7153  -1.4449  0.4096
H       -1.3534  0.8089  1.6806
H       -1.4025  -0.8088  2.1604
H       1.3536  -0.8096  -1.6799
H       1.4022  0.8079  -2.1567
H       3.6047  0.1869  -1.2478
H       2.7148  1.4456  -0.4102
H       2.6665  -1.4298  0.3758
H       3.5163  -0.1952  1.2873
H       1.2998  -0.8276  2.0533
H       1.2549  0.7949  1.6361
H       -1.2555  -0.7946  -1.6361
