27

Co      -0.0490  -0.0427  -0.0422
Cl      0.0068  -2.2578  -0.2105
Cl      0.0064  2.3211  0.2214
N       -1.5035  0.1546  -1.3774
N       -1.4904  -0.1405  1.3371
N       1.4512  0.1513  -1.2481
N       1.5951  -0.1368  1.3552
C       -2.6890  0.4083  -0.6134
C       -2.6892  -0.4133  0.6339
C       2.6956  0.4000  -0.5841
C       2.7939  -0.4341  0.6439
H       -1.2605  0.9408  -1.9594
H       -2.8754  1.4637  -0.4456
H       -3.5221  0.0080  -1.1864
H       -3.5073  0.0268  1.2087
H       -2.9046  -1.4700  0.4909
H       -1.6360  0.7167  1.8493
H       -1.2366  -0.8568  1.9878
H       1.6272  -0.6464  -1.8511
H       1.2018  0.9307  -1.8369
H       3.4664  0.0273  -1.2487
H       2.8918  1.4527  -0.3956
H       3.0194  -1.4909  0.5096
H       3.6283  0.0277  1.1925
H       1.3740  -0.8070  2.0717
H       1.7634  0.7518  1.8082
H       -1.6960  -0.6392  -1.9807
