27

Co      0.0000  0.0000  0.0000
Cl      0.0002  -2.2823  -0.2159
Cl      -0.0001  2.2823  0.2160
N       -1.3662  0.1443  -1.2555
N       -1.4447  -0.1444  1.3290
N       1.4448  0.1442  -1.3291
N       1.3662  -0.1439  1.2554
C       -2.7877  0.4210  -0.6686
C       -2.8371  -0.4350  0.6882
C       2.8369  0.4357  -0.6884
C       2.7880  -0.4199  0.6688
H       -1.2182  0.8555  -1.9550
H       -2.7406  1.4865  -0.4749
H       -3.6401  0.2150  -1.2992
H       -3.7239  -0.2041  1.2646
H       -2.7904  -1.5033  0.5093
H       -1.6619  0.7030  1.8452
H       -1.3168  -0.8364  2.0576
H       1.6667  -0.7036  -1.8445
H       1.3166  0.8355  -2.0583
H       3.7285  0.2048  -1.2601
H       2.7898  1.5040  -0.5099
H       2.7415  -1.4882  0.4756
H       3.6400  -0.2130  1.2995
H       1.2186  -0.8552  1.9548
H       1.5680  0.6890  1.8007
H       -1.5685  -0.6886  -1.8007
