27

Co      0.0000  -0.0488  -0.0034
Cl      0.0002  -2.2630  -0.2125
Cl      -0.0001  2.3303  0.2194
N       -1.5410  0.1555  -1.4022
N       -1.5410  -0.1455  1.3987
N       1.5411  0.1554  -1.4021
N       1.5410  -0.1450  1.3987
C       -2.7205  0.3820  -0.5994
C       -2.7207  -0.3812  0.6028
C       2.7205  0.3819  -0.5996
C       2.7207  -0.3808  0.6030
H       -1.3103  0.9763  -1.9373
H       -2.8695  1.4259  -0.3622
H       -3.5183  0.0732  -1.2541
H       -3.5228  -0.0653  1.2531
H       -2.8702  -1.4224  0.3723
H       -1.4280  0.7543  1.8608
H       -1.3478  -0.9095  2.0075
H       1.4506  -0.6910  -1.9476
H       1.3105  0.9760  -1.9375
H       3.5183  0.0728  -1.2542
H       2.8696  1.4231  -0.3628
H       2.8705  -1.4220  0.3729
H       3.5183  -0.0645  1.2577
H       1.3477  -0.9087  2.0079
H       1.4232  0.7551  1.8605
H       -1.4506  -0.6907  -1.9480
