27

Co      0.0000  0.0061  -0.0389
Cl      0.0002  -2.3359  -0.2156
Cl      -0.0001  2.3318  0.2198
N       -1.4926  0.1574  -1.2991
N       -1.5580  -0.1534  1.3359
N       1.4926  0.1573  -1.2991
N       1.5580  -0.1529  1.3359
C       -2.7394  0.3679  -0.5960
C       -2.7887  -0.3876  0.6328
C       2.7394  0.3679  -0.5961
C       2.7887  -0.3872  0.6330
H       -1.3599  0.9306  -1.9284
H       -2.8302  1.4234  -0.3916
H       -3.5760  0.0743  -1.2121
H       -3.6496  -0.0364  1.1918
H       -2.9086  -1.4444  0.4611
H       -1.6068  0.7080  1.8469
H       -1.3971  -0.8944  1.9892
H       1.5416  -0.6821  -1.8461
H       1.3601  0.9303  -1.9286
H       3.5760  0.0739  -1.2123
H       2.8303  1.4206  -0.3922
H       2.9089  -1.4440  0.4618
H       3.6496  -0.0355  1.1920
H       1.3971  -0.8936  1.9896
H       1.6065  0.7087  1.8465
H       -1.5416  -0.6798  -1.8465
