27

Co      -0.0250  -0.0488  -0.0034
Cl      0.0002  -2.2275  -0.2147
Cl      -0.0001  2.2949  0.2215
N       -1.5923  0.0918  -1.3341
N       -1.5923  -0.0818  1.3307
N       1.6333  0.1091  -1.4342
N       1.6333  -0.0988  1.4309
C       -2.7438  0.4410  -0.5857
C       -2.7440  -0.4403  0.5891
C       2.7439  0.4364  -0.5950
C       2.7440  -0.4353  0.5984
H       -1.0314  0.9296  -1.7680
H       -2.8922  1.4861  -0.3384
H       -3.6049  0.1097  -1.1436
H       -3.6094  -0.1018  1.1426
H       -2.8929  -1.4825  0.3485
H       -1.5483  0.7747  1.8453
H       -1.0689  -0.8628  1.8382
H       1.6264  -0.6886  -2.0565
H       1.1135  0.9649  -1.8554
H       3.6504  0.0965  -1.0982
H       2.8824  1.4750  -0.3565
H       2.8833  -1.4739  0.3666
H       3.6503  -0.0882  1.1017
H       1.1551  -0.8976  1.9258
H       1.5990  0.7527  1.9694
H       -1.5710  -0.7111  -1.9325
