27

Co      0.0000  0.0000  0.0000
Cl      0.0002  -2.2966  -0.2159
Cl      -0.0001  2.2967  0.2160
N       -1.5079  0.1169  -1.3950
N       -1.5078  -0.1170  1.3949
N       1.5079  0.1168  -1.3949
N       1.5078  -0.1165  1.3949
C       -2.7530  0.4285  -0.6444
C       -2.7533  -0.4278  0.6444
C       2.7531  0.4285  -0.6446
C       2.7533  -0.4274  0.6446
H       -1.1873  0.9581  -1.8888
H       -2.8557  1.4832  -0.4601
H       -3.5844  0.1111  -1.2542
H       -3.5844  -0.1100  1.2544
H       -2.8564  -1.4825  0.4601
H       -1.7009  0.6286  2.0812
H       -1.1877  -0.9586  1.8884
H       1.7011  -0.6292  -2.0805
H       1.1875  0.9578  -1.8935
H       3.5844  0.1063  -1.2544
H       2.8558  1.4832  -0.4607
H       2.8567  -1.4821  0.4607
H       3.5843  -0.1047  1.2545
H       1.1920  -0.9578  1.8932
H       1.7006  0.6293  2.0809
H       -1.7011  -0.6289  -2.0809
