27

Co      0.0000  0.0000  0.0000
Cl      0.0002  -2.3018  -0.2123
Cl      -0.0001  2.3019  0.2124
N       -1.6049  0.1640  -1.3832
N       -1.6049  -0.1641  1.3831
N       1.6049  0.1639  -1.3831
N       1.6049  -0.1636  1.3831
C       -2.7902  0.3851  -0.6108
C       -2.7905  -0.3844  0.6108
C       2.7903  0.3851  -0.6109
C       2.7904  -0.3840  0.6110
H       -1.2393  0.9451  -1.9294
H       -2.9438  1.4339  -0.3935
H       -3.6730  0.0266  -1.1386
H       -3.6775  -0.0255  1.1343
H       -2.9445  -1.4304  0.3935
H       -1.4177  0.7344  1.8488
H       -1.2398  -0.9456  1.9289
H       1.4135  -0.7351  -1.8481
H       1.2395  0.9448  -1.9296
H       3.6730  0.0262  -1.1388
H       2.9439  1.4311  -0.3941
H       2.9448  -1.4300  0.3942
H       3.6729  -0.0246  1.1389
H       1.2397  -0.9449  1.9293
H       1.4130  0.7351  1.8485
H       -1.4135  -0.7348  -1.8485
