27

Co      0.0000  0.0488  0.0034
Cl      0.0002  -2.3107  -0.2229
Cl      -0.0001  2.2435  0.2163
N       -1.3694  0.1260  -1.3215
N       -1.3694  -0.1363  1.3248
N       1.3694  0.1260  -1.3214
N       1.3693  -0.1358  1.3248
C       -2.7380  0.4346  -0.6620
C       -2.7382  -0.4339  0.6586
C       2.7381  0.4346  -0.6621
C       2.7382  -0.4335  0.6588
H       -1.1756  0.8179  -2.0202
H       -2.7396  1.4865  -0.4315
H       -3.5362  0.2212  -1.3579
H       -3.5362  -0.2268  1.3547
H       -2.7403  -1.4886  0.4214
H       -1.4370  0.7120  1.8564
H       -1.1390  -0.8858  1.9490
H       1.4104  -0.7766  -1.7681
H       1.1758  0.8176  -2.0204
H       3.5362  0.2208  -1.3581
H       2.7397  1.4893  -0.4321
H       2.7406  -1.4882  0.4220
H       3.5361  -0.2260  1.3548
H       1.1389  -0.8850  1.9494
H       1.4368  0.7127  1.8560
H       -1.4104  -0.7763  -1.7685
