27

Co      0.0000  0.0000  0.0000
Cl      0.0002  -2.2451  -0.2142
Cl      -0.0001  2.2451  0.2143
N       -1.4494  0.1423  -1.3583
N       -1.4494  -0.1424  1.3582
N       1.4494  0.1422  -1.3583
N       1.4493  -0.1419  1.3583
C       -2.7322  0.4069  -0.6398
C       -2.7325  -0.4062  0.6397
C       2.7323  0.4068  -0.6399
C       2.7324  -0.4057  0.6400
H       -1.2742  0.8873  -2.0032
H       -2.7712  1.4616  -0.4245
H       -3.5757  0.1536  -1.2574
H       -3.5757  -0.1525  1.2576
H       -2.7719  -1.4609  0.4246
H       -1.5083  0.7158  1.8724
H       -1.2746  -0.8878  2.0028
H       1.5086  -0.7164  -1.8717
H       1.2744  0.8870  -2.0035
H       3.5757  0.1532  -1.2576
H       2.7714  1.4616  -0.4252
H       2.7722  -1.4605  0.4252
H       3.5756  -0.1516  1.2577
H       1.2745  -0.8871  2.0031
H       1.5081  0.7165  1.8720
H       -1.5086  -0.7162  -1.8721
