27

Co      0.0000  0.0000  0.0000
Cl      0.0002  -2.3215  -0.2213
Cl      -0.0001  2.3215  0.2214
N       -1.3540  0.1362  -1.2744
N       -1.4325  -0.1363  1.3479
N       1.4326  0.1361  -1.3480
N       1.3540  -0.1359  1.2743
C       -2.7476  0.4255  -0.6505
C       -2.7969  -0.4396  0.6701
C       2.7968  0.4402  -0.6703
C       2.7478  -0.4244  0.6507
H       -1.1319  0.8682  -1.9196
H       -2.7612  1.4774  -0.4144
H       -3.5176  0.2158  -1.3861
H       -3.6060  -0.2049  1.3470
H       -2.8109  -1.4943  0.4487
H       -1.4915  0.7445  1.8262
H       -1.2305  -0.8491  2.0222
H       1.4917  -0.7451  -1.8255
H       1.2303  0.8483  -2.0229
H       3.6060  0.2056  -1.3470
H       2.8104  1.4950  -0.4494
H       2.7621  -1.4792  0.4150
H       3.5175  -0.2139  1.3864
H       1.1322  -0.8680  1.9195
H       1.3930  0.7305  1.7817
H       -1.3935  -0.7301  -1.7817
