27

Co      -0.0250  0.0061  -0.0389
Cl      0.0002  -2.2952  -0.2214
Cl      -0.0001  2.2912  0.2255
N       -1.5062  0.1154  -1.2941
N       -1.4931  -0.1115  1.2572
N       1.4687  0.1328  -1.3205
N       1.6126  -0.1284  1.4310
C       -2.7260  0.4055  -0.5825
C       -2.7262  -0.4105  0.5997
C       2.6770  0.3862  -0.5721
C       2.7753  -0.4202  0.6287
H       -1.3591  0.8269  -1.9953
H       -2.7481  1.4572  -0.3331
H       -3.5906  0.1827  -1.1863
H       -3.5758  -0.1546  1.2052
H       -2.7773  -1.4635  0.3683
H       -1.5543  0.7751  1.7194
H       -1.2982  -0.8102  1.9530
H       1.5445  -0.7263  -1.8431
H       1.3431  0.8818  -1.9752
H       3.5477  0.1839  -1.1802
H       2.6892  1.4314  -0.3168
H       2.8168  -1.4695  0.4207
H       3.7096  -0.1357  1.1206
H       1.4782  -0.8254  2.1393
H       1.7076  0.7678  1.8876
H       -1.5873  -0.7615  -1.7632
