27

Co      0.0250  0.0427  0.0422
Cl      0.0002  -2.3121  -0.2175
Cl      -0.0001  2.2489  0.2067
N       -1.4012  0.2037  -1.4063
N       -1.4143  -0.2180  1.4464
N       1.4388  0.1862  -1.3797
N       1.2948  -0.2001  1.2726
C       -2.7089  0.3555  -0.6734
C       -2.7091  -0.3491  0.6529
C       2.7580  0.3748  -0.6841
C       2.6600  -0.3385  0.6244
H       -1.3955  0.8820  -2.1628
H       -2.7483  1.4160  -0.4903
H       -3.5788  0.0760  -1.2481
H       -3.5935  -0.1086  1.2260
H       -2.7203  -1.4055  0.4451
H       -1.3451  0.6807  1.9101
H       -1.4202  -0.9671  2.1333
H       1.3284  -0.7946  -1.6974
H       1.4119  0.8265  -2.1789
H       3.6216  0.0785  -1.2545
H       2.8074  1.4391  -0.5079
H       2.6814  -1.3987  0.3939
H       3.4595  -0.1303  1.3110
H       1.2356  -0.9503  1.9434
H       1.1912  0.6895  1.7412
H       -1.2857  -0.7589  -1.7780
