27

Co      0.0000  -0.0488  -0.0034
Cl      0.0002  -2.2558  -0.2125
Cl      -0.0001  2.3232  0.2194
N       -1.5141  0.1175  -1.3528
N       -1.5141  -0.1075  1.3493
N       1.5141  0.1174  -1.3527
N       1.5141  -0.1070  1.3494
C       -2.7533  0.4403  -0.6296
C       -2.7535  -0.4396  0.6329
C       2.7534  0.4402  -0.6297
C       2.7535  -0.4391  0.6332
H       -0.9403  0.9810  -1.7479
H       -2.9212  1.4862  -0.4108
H       -3.5694  0.0809  -1.2384
H       -3.5739  -0.0731  1.2373
H       -2.9219  -1.4855  0.4210
H       -1.4482  0.7353  1.8995
H       -0.9778  -0.9142  1.8181
H       1.4708  -0.6720  -1.9863
H       0.9405  0.9807  -1.7525
H       3.5694  0.0761  -1.2385
H       2.9213  1.4863  -0.4115
H       2.9222  -1.4852  0.4216
H       3.5693  -0.0678  1.2420
H       0.9821  -0.9134  1.8229
H       1.4434  0.7360  1.8991
H       -1.4708  -0.6717  -1.9867
