27

Co      0.0490  -0.0061  0.0389
Cl      -0.0063  -2.2785  -0.2141
Cl      -0.0067  2.2826  0.2101
N       -1.3902  0.1619  -1.3614
N       -1.3247  -0.1661  1.3245
N       1.3640  0.1613  -1.4169
N       1.2986  -0.1651  1.3801
C       -2.7938  0.4101  -0.7057
C       -2.7450  -0.3890  0.6689
C       2.7383  0.4035  -0.7157
C       2.6894  -0.3820  0.6789
H       -1.4086  0.9004  -2.0663
H       -2.8131  1.4765  -0.5609
H       -3.5856  0.1472  -1.3904
H       -3.5074  -0.1829  1.4155
H       -2.7360  -1.4541  0.4914
H       -1.5998  0.6085  1.9606
H       -1.3722  -0.9377  2.0045
H       1.6444  -0.6161  -2.0411
H       1.3695  0.9258  -2.0899
H       3.5529  0.1408  -1.3676
H       2.7441  1.4766  -0.5741
H       2.6672  -1.4509  0.5046
H       3.4792  -0.1760  1.3882
H       1.3329  -0.9626  2.0282
H       1.5784  0.5896  2.0415
H       -1.6701  -0.6375  -1.9603
