27

Co      0.0250  0.0427  0.0422
Cl      0.0002  -2.2767  -0.2196
Cl      -0.0001  2.2135  0.2089
N       -1.4355  0.1417  -1.3748
N       -1.4486  -0.1560  1.4149
N       1.4731  0.1279  -1.3482
N       1.3291  -0.1418  1.2411
C       -2.7367  0.3981  -0.6630
C       -2.7370  -0.3917  0.6424
C       2.7859  0.4173  -0.6736
C       2.6879  -0.3811  0.6139
H       -1.5027  0.8526  -2.1259
H       -2.7300  1.4636  -0.4934
H       -3.5845  0.1632  -1.2863
H       -3.5947  -0.1959  1.2688
H       -2.7020  -1.4530  0.4481
H       -1.7807  0.6051  2.0659
H       -1.5275  -0.9376  2.0965
H       1.7648  -0.7190  -1.8571
H       1.5192  0.8008  -2.1427
H       3.6274  0.1576  -1.2927
H       2.7928  1.4829  -0.5147
H       2.6669  -1.4425  0.4008
H       3.4653  -0.2094  1.3492
H       1.3473  -0.9246  1.9073
H       1.6276  0.6138  1.9008
H       -1.7258  -0.6833  -1.9339
