27

Co      -0.0741  -0.0488  -0.0034
Cl      0.0068  -2.2610  -0.2089
Cl      0.0064  2.3284  0.2157
N       -1.4983  0.1249  -1.2996
N       -1.4983  -0.1150  1.2962
N       1.5654  0.1353  -1.3442
N       1.5654  -0.1249  1.3408
C       -2.8128  0.3936  -0.6340
C       -2.8130  -0.3929  0.6374
C       2.8684  0.3956  -0.6334
C       2.8686  -0.3945  0.6369
H       -1.2218  1.0051  -1.7690
H       -2.8361  1.4483  -0.4196
H       -3.6376  0.1615  -1.2867
H       -3.6376  -0.1537  1.2902
H       -2.8367  -1.4476  0.4297
H       -1.5405  0.6773  1.9174
H       -1.2593  -0.9384  1.8392
H       1.6563  -0.6108  -2.0398
H       1.3432  1.0073  -1.8405
H       3.7158  0.1620  -1.2642
H       2.8879  1.4503  -0.4175
H       2.8887  -1.4492  0.4277
H       3.7157  -0.1537  1.2677
H       1.3848  -0.9400  1.9109
H       1.6289  0.6748  1.9527
H       -1.5677  -0.6137  -2.0046
