27

Co      0.0000  0.0488  0.0034
Cl      0.0002  -2.3623  -0.2246
Cl      -0.0001  2.2950  0.2180
N       -1.4148  0.1360  -1.3670
N       -1.4148  -0.1462  1.3702
N       1.4148  0.1359  -1.3669
N       1.4148  -0.1457  1.3703
C       -2.7674  0.4305  -0.6668
C       -2.7676  -0.4298  0.6634
C       2.7674  0.4305  -0.6669
C       2.7676  -0.4294  0.6636
H       -1.2282  0.8439  -2.0472
H       -2.7690  1.4824  -0.4414
H       -3.5833  0.2123  -1.3418
H       -3.5833  -0.2180  1.3386
H       -2.7696  -1.4845  0.4313
H       -1.4821  0.6908  1.9196
H       -1.1916  -0.9117  1.9760
H       1.4554  -0.7554  -1.8314
H       1.2284  0.8436  -2.0474
H       3.5833  0.2119  -1.3420
H       2.7691  1.4852  -0.4420
H       2.7699  -1.4841  0.4319
H       3.5832  -0.2171  1.3388
H       1.1915  -0.9110  1.9764
H       1.4819  0.6915  1.9193
H       -1.4555  -0.7551  -1.8318
