27

Co      -0.0490  0.0000  0.0000
Cl      0.0068  -2.3056  -0.2198
Cl      0.0064  2.3056  0.2199
N       -1.6192  0.1313  -1.4072
N       -1.6192  -0.1315  1.4071
N       1.6454  0.1317  -1.3516
N       1.6453  -0.1314  1.3516
C       -2.7457  0.4426  -0.6013
C       -2.7460  -0.4419  0.6013
C       2.8014  0.4491  -0.5916
C       2.8015  -0.4480  0.5917
H       -1.1483  0.8670  -1.9755
H       -2.9431  1.4877  -0.3769
H       -3.6192  0.0456  -1.1257
H       -3.6237  -0.0445  1.1214
H       -2.9437  -1.4841  0.3769
H       -1.5733  0.7679  1.8561
H       -1.1487  -0.8676  1.9751
H       1.5947  -0.7881  -1.7742
H       1.1877  0.8410  -1.9524
H       3.6519  0.0513  -1.1488
H       3.0123  1.4877  -0.3649
H       3.0131  -1.4866  0.3649
H       3.6518  -0.0497  1.1489
H       1.1879  -0.8411  1.9521
H       1.5942  0.7882  1.7745
H       -1.5690  -0.7682  -1.8558
