27

Co      0.0490  0.0427  0.0422
Cl      -0.0063  -2.2729  -0.2121
Cl      -0.0067  2.2098  0.2014
N       -1.4633  0.1988  -1.3599
N       -1.3979  -0.2131  1.3263
N       1.4372  0.1983  -1.4154
N       1.3717  -0.2122  1.3820
C       -2.7968  0.3684  -0.6738
C       -2.7480  -0.3473  0.6336
C       2.7413  0.3619  -0.6837
C       2.6924  -0.3403  0.6436
H       -1.4553  0.8469  -2.1559
H       -2.8551  1.4289  -0.4943
H       -3.6486  0.0729  -1.2662
H       -3.5750  -0.1154  1.2834
H       -2.7781  -1.4037  0.4147
H       -1.3114  0.6892  1.7805
H       -1.3819  -0.9516  2.0234
H       1.3245  -0.7607  -1.7735
H       1.4162  0.8723  -2.1751
H       3.6159  0.0709  -1.2435
H       2.7861  1.4261  -0.5075
H       2.7092  -1.4005  0.4279
H       3.5422  -0.1129  1.2607
H       1.3381  -0.9765  2.0427
H       1.2855  0.6703  1.8614
H       -1.3502  -0.7821  -1.6926
