27

Co      -0.0741  0.0061  -0.0389
Cl      0.0068  -2.3039  -0.2102
Cl      0.0064  2.2998  0.2144
N       -1.5779  0.1608  -1.3793
N       -1.5648  -0.1569  1.3424
N       1.5665  0.1712  -1.3502
N       1.7104  -0.1668  1.4606
C       -2.7624  0.3812  -0.6026
C       -2.7627  -0.3863  0.6197
C       2.7690  0.3685  -0.5824
C       2.8673  -0.4025  0.6389
H       -1.2094  0.9525  -1.9168
H       -2.9037  1.4280  -0.3773
H       -3.6413  0.0374  -1.1405
H       -3.6310  -0.0093  1.1550
H       -2.9329  -1.4343  0.4125
H       -1.3571  0.7429  1.8078
H       -1.1485  -0.9358  1.8746
H       1.3760  -0.7138  -1.8427
H       1.2326  0.9742  -1.8809
H       3.6311  0.0521  -1.1573
H       2.9064  1.4125  -0.3409
H       3.0340  -1.4506  0.4448
H       3.7930  -0.0039  1.0977
H       1.3678  -0.9179  2.0450
H       1.5391  0.7553  1.8872
H       -1.3856  -0.7294  -1.8516
