27

Co      -0.0741  0.0000  0.0000
Cl      0.0068  -2.2946  -0.2123
Cl      0.0064  2.2947  0.2124
N       -1.4983  0.1199  -1.2980
N       -1.4983  -0.1200  1.2979
N       1.5654  0.1302  -1.3425
N       1.5654  -0.1299  1.3425
C       -2.8128  0.3936  -0.6357
C       -2.8130  -0.3929  0.6357
C       2.8684  0.3956  -0.6351
C       2.8686  -0.3945  0.6352
H       -1.2403  0.9715  -1.8044
H       -2.8361  1.4483  -0.4246
H       -3.6376  0.1581  -1.2884
H       -3.6376  -0.1571  1.2885
H       -2.8367  -1.4476  0.4246
H       -1.5540  0.6453  1.9611
H       -1.2408  -0.9720  1.8039
H       1.6429  -0.6427  -1.9961
H       1.3617  0.9736  -1.8759
H       3.7158  0.1586  -1.2659
H       2.8879  1.4503  -0.4226
H       2.8887  -1.4492  0.4226
H       3.7157  -0.1570  1.2660
H       1.3663  -0.9737  1.8756
H       1.6423  0.6428  1.9964
H       -1.5543  -0.6456  -1.9608
