27

Co      0.0250  -0.0061  0.0389
Cl      0.0002  -2.3157  -0.2158
Cl      -0.0001  2.3198  0.2118
N       -1.3985  0.1783  -1.3162
N       -1.4117  -0.1825  1.3529
N       1.4361  0.1608  -1.2896
N       1.2921  -0.1646  1.1792
C       -2.7438  0.3774  -0.6849
C       -2.7440  -0.3710  0.6678
C       2.7929  0.3966  -0.6956
C       2.6949  -0.3604  0.6392
H       -1.2869  0.9301  -1.9724
H       -2.8030  1.4515  -0.5700
H       -3.6348  0.0318  -1.2054
H       -3.6450  -0.0577  1.1912
H       -2.7750  -1.4409  0.5348
H       -1.6117  0.6180  1.9542
H       -1.3487  -0.9478  2.0136
H       1.6265  -0.6679  -1.8291
H       1.3033  0.8745  -1.9929
H       3.6776  0.0299  -1.2118
H       2.8621  1.4745  -0.5876
H       2.7361  -1.4341  0.4837
H       3.5156  -0.0750  1.2717
H       1.1685  -0.9311  1.8282
H       1.4623  0.6267  1.7853
H       -1.5837  -0.6322  -1.9097
