27

Co      -0.0741  -0.0488  -0.0034
Cl      0.0068  -2.2558  -0.2125
Cl      0.0064  2.3232  0.2194
N       -1.4397  0.1472  -1.3258
N       -1.4397  -0.1373  1.3223
N       1.5068  0.1576  -1.3703
N       1.5068  -0.1472  1.3669
C       -2.7386  0.4042  -0.6384
C       -2.7388  -0.4035  0.6418
C       2.7942  0.4061  -0.6379
C       2.7944  -0.4050  0.6413
H       -1.2190  0.9266  -1.9208
H       -2.7915  1.4589  -0.4260
H       -3.5622  0.1407  -1.2773
H       -3.5622  -0.1329  1.2808
H       -2.7921  -1.4582  0.4361
H       -1.4694  0.7425  1.8011
H       -1.2564  -0.8598  1.9910
H       1.5851  -0.6761  -1.9236
H       1.3403  0.9287  -1.9879
H       3.6404  0.1456  -1.2548
H       2.8433  1.4609  -0.4239
H       2.8441  -1.4598  0.4340
H       3.6403  -0.1372  1.2583
H       1.3775  -0.8615  2.0583
H       1.5577  0.7401  1.8364
H       -1.4965  -0.6789  -1.8883
