27

Co      0.0000  -0.0488  -0.0034
Cl      0.0002  -2.2166  -0.2072
Cl      -0.0001  2.2840  0.2140
N       -1.5891  0.1543  -1.3762
N       -1.5105  -0.1443  1.2991
N       1.5105  0.1542  -1.3025
N       1.5890  -0.1438  1.3728
C       -2.7854  0.3917  -0.6045
C       -2.7365  -0.3763  0.5882
C       2.7364  0.3769  -0.5850
C       2.7856  -0.3906  0.6080
H       -1.3628  0.9527  -1.9428
H       -2.9536  1.4357  -0.3763
H       -3.5731  0.0581  -1.2643
H       -3.4892  -0.0601  1.3026
H       -2.9051  -1.4174  0.3521
H       -1.3828  0.7560  1.7634
H       -1.3021  -0.9055  1.9100
H       1.4055  -0.6926  -1.8502
H       1.2648  0.9720  -1.8400
H       3.4847  0.0676  -1.3037
H       2.9046  1.4181  -0.3426
H       2.9545  -1.4318  0.3871
H       3.5730  -0.0494  1.2680
H       1.4002  -0.8851  2.0134
H       1.4762  0.7714  1.8072
H       -1.5037  -0.7071  -1.8948
