27

Co      -0.0250  0.0061  -0.0389
Cl      0.0002  -2.2987  -0.2139
Cl      -0.0001  2.2946  0.2181
N       -1.4809  0.1474  -1.3722
N       -1.4677  -0.1434  1.3352
N       1.4433  0.1610  -1.3986
N       1.5872  -0.1566  1.5091
C       -2.7616  0.4022  -0.6314
C       -2.7618  -0.4072  0.6486
C       2.7126  0.3829  -0.6210
C       2.8109  -0.4170  0.6775
H       -1.3165  0.9059  -2.0079
H       -2.7931  1.4549  -0.4100
H       -3.6075  0.1605  -1.2547
H       -3.5927  -0.1324  1.2737
H       -2.8224  -1.4639  0.4452
H       -1.5075  0.7130  1.8521
H       -1.2556  -0.8893  1.9657
H       1.5015  -0.6642  -1.9720
H       1.3005  0.9571  -1.9915
H       3.5646  0.1654  -1.2486
H       2.7305  1.4356  -0.3900
H       2.8581  -1.4738  0.4939
H       3.7265  -0.1172  1.1890
H       1.4356  -0.9007  2.1556
H       1.6646  0.7056  2.0166
H       -1.5405  -0.6994  -1.8959
