27

Co      0.0250  0.0488  0.0034
Cl      0.0002  -2.3623  -0.2246
Cl      -0.0001  2.2950  0.2180
N       -1.3960  0.1428  -1.3802
N       -1.4746  -0.1530  1.4571
N       1.4336  0.1291  -1.3536
N       1.3550  -0.1389  1.2834
C       -2.7428  0.4209  -0.6615
C       -2.7921  -0.4349  0.6778
C       2.7920  0.4401  -0.6722
C       2.7430  -0.4243  0.6493
H       -1.2201  0.8696  -2.0389
H       -2.7376  1.4728  -0.4310
H       -3.5619  0.2150  -1.3387
H       -3.6503  -0.2108  1.2962
H       -2.7873  -1.4896  0.4553
H       -1.5608  0.6868  2.0032
H       -1.2817  -0.9178  2.0708
H       1.4749  -0.7741  -1.7943
H       1.2365  0.8178  -2.0557
H       3.6047  0.2093  -1.3451
H       2.8004  1.4949  -0.4524
H       2.7522  -1.4790  0.4079
H       3.5163  -0.2243  1.3812
H       1.1015  -0.9048  1.8816
H       1.4032  0.6955  1.8380
H       -1.4360  -0.7364  -1.8711
