27

Co      -0.0250  -0.0427  -0.0422
Cl      0.0002  -2.3131  -0.2197
Cl      -0.0001  2.3764  0.2306
N       -1.5235  0.1276  -1.3581
N       -1.5104  -0.1135  1.3178
N       1.4859  0.1449  -1.3846
N       1.6299  -0.1304  1.4917
C       -2.7920  0.4267  -0.6110
C       -2.7922  -0.4317  0.6315
C       2.7430  0.4074  -0.6006
C       2.8413  -0.4415  0.6605
H       -1.3369  0.8752  -2.0038
H       -2.7718  1.4756  -0.3464
H       -3.6518  0.2476  -1.2445
H       -3.6370  -0.2128  1.2669
H       -2.8010  -1.4847  0.3917
H       -1.5577  0.7943  1.7473
H       -1.3130  -0.7913  2.0323
H       1.5749  -0.6816  -1.9585
H       1.3208  0.9302  -1.9837
H       3.6089  0.2488  -1.2384
H       2.7129  1.4526  -0.3301
H       2.8405  -1.4908  0.4441
H       3.7709  -0.1938  1.1822
H       1.4930  -0.8065  2.2185
H       1.7111  0.7870  1.9155
H       -1.6177  -0.7168  -1.8787
