27

Co      0.0250  0.0427  0.0422
Cl      0.0002  -2.3049  -0.2175
Cl      -0.0001  2.2418  0.2067
N       -1.4139  0.1681  -1.3633
N       -1.3485  -0.1825  1.3297
N       1.3730  0.1507  -1.2630
N       1.3075  -0.1646  1.2296
C       -2.7342  0.3865  -0.6964
C       -2.6853  -0.3653  0.6563
C       2.7343  0.3910  -0.6875
C       2.6853  -0.3694  0.6474
H       -1.3306  0.8798  -2.0729
H       -2.7814  1.4605  -0.5871
H       -3.6534  0.0372  -1.1772
H       -3.5752  -0.0797  1.1989
H       -2.7044  -1.4353  0.5075
H       -1.5573  0.5855  1.9845
H       -1.2572  -0.9845  1.9404
H       1.5451  -0.6994  -1.7718
H       1.2488  0.8439  -1.9904
H       3.6078  0.0451  -1.2229
H       2.7914  1.4688  -0.5703
H       2.7146  -1.4432  0.4907
H       3.5342  -0.0871  1.2401
H       1.1751  -0.9481  1.8580
H       1.5061  0.6089  1.8597
H       -1.6006  -0.6784  -1.8966
