27

Co      0.0000  -0.0427  -0.0422
Cl      0.0002  -2.2186  -0.2052
Cl      -0.0001  2.2819  0.2161
N       -1.5379  0.1584  -1.3747
N       -1.5248  -0.1443  1.3344
N       1.4594  0.1583  -1.3010
N       1.6033  -0.1438  1.4081
C       -2.7975  0.4117  -0.6211
C       -2.7977  -0.4167  0.6416
C       2.7485  0.3969  -0.6016
C       2.8468  -0.4310  0.6615
H       -1.1426  0.9501  -1.9048
H       -2.8945  1.4556  -0.3694
H       -3.6473  0.1227  -1.2196
H       -3.6371  -0.0879  1.2375
H       -2.9238  -1.4647  0.4147
H       -1.3146  0.8030  1.7282
H       -1.1187  -0.8662  1.9333
H       1.2719  -0.7131  -1.8150
H       1.0446  0.9694  -1.8020
H       3.5589  0.1321  -1.2591
H       2.8456  1.4409  -0.3357
H       2.9732  -1.4791  0.4497
H       3.7208  -0.0772  1.2029
H       1.2168  -0.8457  2.0368
H       1.4080  0.8184  1.7720
H       -1.3701  -0.7255  -1.8596
