27

Co      0.0741  -0.0061  0.0389
Cl      -0.0063  -2.2430  -0.2162
Cl      -0.0067  2.2472  0.2123
N       -1.4764  0.1454  -1.3622
N       -1.4895  -0.1496  1.3990
N       1.4878  0.1349  -1.3912
N       1.3438  -0.1387  1.2808
C       -2.7600  0.4107  -0.6480
C       -2.7603  -0.4043  0.6308
C       2.7536  0.4234  -0.6685
C       2.6556  -0.3872  0.6121
H       -1.3041  0.8799  -2.0158
H       -2.8114  1.4675  -0.4408
H       -3.6074  0.1427  -1.2555
H       -3.6222  -0.1686  1.2369
H       -2.7835  -1.4569  0.4056
H       -1.5690  0.7073  1.9134
H       -1.3659  -0.8977  2.0571
H       1.5461  -0.7376  -1.8771
H       1.2813  0.8576  -2.0522
H       3.6176  0.1273  -1.2390
H       2.8089  1.4802  -0.4785
H       2.6829  -1.4399  0.3746
H       3.4555  -0.1723  1.2989
H       1.1464  -0.9141  1.8875
H       1.3820  0.6964  1.8333
H       -1.5365  -0.7215  -1.8689
