27

Co      0.0490  0.0488  0.0034
Cl      -0.0063  -2.3107  -0.2229
Cl      -0.0067  2.2435  0.2163
N       -1.3825  0.1244  -1.2937
N       -1.3825  -0.1346  1.2970
N       1.3563  0.1276  -1.3492
N       1.3563  -0.1374  1.3526
C       -2.7658  0.4379  -0.6571
C       -2.7660  -0.4372  0.6537
C       2.7103  0.4313  -0.6670
C       2.7104  -0.4302  0.6638
H       -1.1952  0.8032  -2.0103
H       -2.7723  1.4898  -0.4233
H       -3.5525  0.2261  -1.3694
H       -3.5525  -0.2317  1.3661
H       -2.7730  -1.4919  0.4132
H       -1.4518  0.7218  1.8139
H       -1.1586  -0.8711  1.9392
H       1.3956  -0.7668  -1.8106
H       1.1562  0.8323  -2.0302
H       3.5198  0.2159  -1.3466
H       2.7070  1.4861  -0.4403
H       2.7079  -1.4850  0.4302
H       3.5198  -0.2211  1.3434
H       1.1193  -0.8997  1.9592
H       1.4221  0.7029  1.8985
H       -1.4251  -0.7861  -1.7260
