27

Co      -0.0490  -0.0427  -0.0422
Cl      0.0068  -2.2186  -0.2052
Cl      0.0064  2.2819  0.2161
N       -1.5268  0.1275  -1.3399
N       -1.5922  -0.1134  1.3733
N       1.5529  0.1242  -1.2843
N       1.6183  -0.1097  1.3177
C       -2.7000  0.4014  -0.5907
C       -2.7493  -0.4212  0.6309
C       2.7556  0.4079  -0.5811
C       2.8049  -0.4273  0.6213
H       -0.9907  1.0307  -1.7048
H       -2.8981  1.4482  -0.3776
H       -3.5342  0.0187  -1.1647
H       -3.6123  0.0260  1.1432
H       -2.9764  -1.4692  0.4572
H       -1.5246  0.7260  1.9299
H       -1.0649  -0.9271  1.8363
H       1.5113  -0.6557  -1.9318
H       1.0301  1.0010  -1.6898
H       3.5669  0.0237  -1.1877
H       2.9636  1.4519  -0.3619
H       3.0421  -1.4754  0.4415
H       3.6405  0.0214  1.1708
H       1.1085  -0.8969  1.8215
H       1.5493  0.7464  1.8446
H       -1.4819  -0.6338  -2.0172
