27

Co      0.0000  0.0427  0.0422
Cl      0.0002  -2.2767  -0.2196
Cl      -0.0001  2.2135  0.2089
N       -1.4408  0.1677  -1.4008
N       -1.3754  -0.1820  1.3673
N       1.4409  0.1676  -1.4007
N       1.3754  -0.1815  1.3673
C       -2.8019  0.4167  -0.6853
C       -2.7531  -0.3956  0.6451
C       2.8020  0.4167  -0.6854
C       2.7531  -0.3951  0.6453
H       -1.3943  0.7792  -2.2276
H       -2.7493  1.4707  -0.4472
H       -3.6651  0.2359  -1.3121
H       -3.5914  -0.2783  1.3293
H       -2.6723  -1.4482  0.3676
H       -1.3135  0.7440  1.7789
H       -1.3209  -0.8839  2.0951
H       1.3522  -0.8352  -1.6907
H       1.3945  0.7789  -2.2234
H       3.6650  0.2399  -1.3122
H       2.7495  1.4735  -0.4478
H       2.6726  -1.4479  0.3682
H       3.5914  -0.2819  1.3295
H       1.3164  -0.8831  2.0910
H       1.3132  0.7448  1.7786
H       -1.3523  -0.8370  -1.6911
