27

Co      0.0490  0.0000  0.0000
Cl      -0.0063  -2.2771  -0.2195
Cl      -0.0067  2.2771  0.2196
N       -1.4009  0.1274  -1.2785
N       -1.4009  -0.1276  1.2784
N       1.3748  0.1306  -1.3340
N       1.3747  -0.1303  1.3340
C       -2.7292  0.4077  -0.6204
C       -2.7294  -0.4070  0.6204
C       2.6737  0.4011  -0.6303
C       2.6738  -0.4000  0.6304
H       -1.3785  0.8578  -1.9823
H       -2.7925  1.4575  -0.3904
H       -3.4415  0.1833  -1.4226
H       -3.4414  -0.1822  1.4227
H       -2.7931  -1.4568  0.3904
H       -1.5392  0.7211  1.8053
H       -1.3789  -0.8583  1.9819
H       1.5100  -0.7021  -1.8896
H       1.3395  0.8869  -2.0022
H       3.4087  0.1731  -1.3998
H       2.7272  1.4510  -0.4074
H       2.7280  -1.4499  0.4074
H       3.4087  -0.1715  1.4000
H       1.3396  -0.8870  2.0019
H       1.5095  0.7022  1.8900
H       -1.5395  -0.7214  -1.8050
