27

Co      -0.0490  0.0000  0.0000
Cl      0.0068  -2.2574  -0.2106
Cl      0.0064  2.2575  0.2107
N       -1.5498  0.1650  -1.4094
N       -1.5498  -0.1652  1.4093
N       1.5760  0.1617  -1.3537
N       1.5760  -0.1614  1.3537
C       -2.7328  0.3790  -0.6338
C       -2.7330  -0.3783  0.6338
C       2.7885  0.3855  -0.6241
C       2.7886  -0.3844  0.6242
H       -1.2501  0.9349  -1.9936
H       -2.8017  1.4414  -0.4554
H       -3.7215  0.0398  -1.0265
H       -3.7215  -0.0387  1.0267
H       -2.8024  -1.4378  0.4554
H       -1.5244  0.6953  1.9225
H       -1.2505  -0.9354  1.9931
H       1.5541  -0.7155  -1.8367
H       1.2895  0.9052  -1.9742
H       3.7541  0.0493  -1.0495
H       2.8672  1.4451  -0.4396
H       2.8681  -1.4440  0.4397
H       3.7541  -0.0477  1.0497
H       1.2897  -0.9052  1.9738
H       1.5536  0.7156  1.8371
H       -1.5247  -0.6956  -1.9221
