27

Co      0.0000  0.0488  0.0034
Cl      0.0002  -2.2716  -0.2176
Cl      -0.0001  2.2043  0.2109
N       -1.3685  0.1694  -1.3114
N       -1.3685  -0.1797  1.3147
N       1.3685  0.1694  -1.3114
N       1.3685  -0.1792  1.3147
C       -2.7867  0.4044  -0.6802
C       -2.7869  -0.4037  0.6768
C       2.7867  0.4043  -0.6803
C       2.7869  -0.4032  0.6770
H       -1.4015  0.7604  -2.1969
H       -2.6639  1.4698  -0.4664
H       -3.6972  0.2540  -1.2582
H       -3.6926  -0.2596  1.2595
H       -2.6646  -1.4719  0.4563
H       -1.4601  0.7365  1.7298
H       -1.3649  -0.8282  2.1258
H       1.4379  -0.8011  -1.6415
H       1.4016  0.7601  -2.1927
H       3.6971  0.2580  -1.2583
H       2.6640  1.4727  -0.4671
H       2.6649  -1.4716  0.4570
H       3.6971  -0.2632  1.2551
H       1.3603  -0.8275  2.1217
H       1.4643  0.7373  1.7295
H       -1.4379  -0.8009  -1.6419
