27

Co      0.0000  0.0000  0.0000
Cl      0.0002  -2.2413  -0.2067
Cl      -0.0001  2.2414  0.2068
N       -1.3268  0.1734  -1.3286
N       -1.4053  -0.1735  1.4021
N       1.4053  0.1696  -1.4022
N       1.3267  -0.1693  1.3286
C       -2.7655  0.3547  -0.6781
C       -2.8148  -0.3687  0.6977
C       2.8147  0.3694  -0.6979
C       2.7657  -0.3536  0.6783
H       -1.4399  0.9703  -1.9972
H       -2.6604  1.4190  -0.4800
H       -3.5765  0.2337  -1.3951
H       -3.6603  -0.2228  1.3605
H       -2.7101  -1.4359  0.5144
H       -1.5719  0.6280  2.0043
H       -1.5386  -0.9512  2.0998
H       1.5804  -0.6286  -1.9999
H       1.5383  0.9466  -2.1043
H       3.6648  0.2273  -1.3559
H       2.7058  1.4403  -0.5112
H       2.6576  -1.4245  0.4769
H       3.5764  -0.2355  1.3954
H       1.4403  -0.9663  2.0009
H       1.4817  0.6140  1.9561
H       -1.4785  -0.6136  -1.9598
