27

Co      0.0250  0.0000  0.0000
Cl      0.0002  -2.2379  -0.2142
Cl      -0.0001  2.2379  0.2143
N       -1.4491  0.1526  -1.3260
N       -1.4491  -0.1527  1.3259
N       1.4082  0.1388  -1.2258
N       1.4081  -0.1385  1.2258
C       -2.7186  0.3976  -0.6937
C       -2.7189  -0.3969  0.6937
C       2.7187  0.4021  -0.6847
C       2.7189  -0.4010  0.6848
H       -1.4890  0.8814  -2.0536
H       -2.6638  1.4668  -0.5117
H       -3.5475  0.2354  -1.3701
H       -3.5430  -0.2343  1.3748
H       -2.6644  -1.4660  0.5117
H       -1.7159  0.6526  1.9112
H       -1.4895  -0.8820  2.0531
H       1.6615  -0.6760  -1.7898
H       1.4073  0.8493  -1.9673
H       3.5019  0.2395  -1.4187
H       2.6747  1.4713  -0.4987
H       2.6755  -1.4702  0.4987
H       3.5019  -0.2380  1.4188
H       1.4075  -0.8493  1.9670
H       1.6610  0.6761  1.7902
H       -1.7207  -0.6530  -1.9108
