27

Co      0.0000  0.0000  0.0000
Cl      0.0002  -2.2379  -0.2142
Cl      -0.0001  2.2379  0.2143
N       -1.3967  0.1773  -1.2962
N       -1.3967  -0.1774  1.2961
N       1.3967  0.1772  -1.2961
N       1.3966  -0.1769  1.2962
C       -2.7501  0.3790  -0.6532
C       -2.7503  -0.3783  0.6532
C       2.7501  0.3790  -0.6533
C       2.7503  -0.3779  0.6534
H       -1.4393  0.8053  -2.1447
H       -2.6696  1.4473  -0.4529
H       -3.6831  0.1870  -1.1805
H       -3.6785  -0.1859  1.1851
H       -2.6702  -1.4466  0.4529
H       -1.4748  0.7601  1.6776
H       -1.4397  -0.8058  2.1442
H       1.4795  -0.7607  -1.6769
H       1.4395  0.8050  -2.1405
H       3.6831  0.1910  -1.1806
H       2.6697  1.4473  -0.4536
H       2.6705  -1.4462  0.4536
H       3.6830  -0.1894  1.1808
H       1.4352  -0.8051  2.1402
H       1.4790  0.7608  1.6772
H       -1.4795  -0.7604  -1.6773
