27

Co      0.0000  0.0000  0.0000
Cl      0.0002  -2.2379  -0.2142
Cl      -0.0001  2.2379  0.2143
N       -1.4148  0.1728  -1.3098
N       -1.4148  -0.1729  1.3097
N       1.4148  0.1727  -1.3097
N       1.4147  -0.1724  1.3097
C       -2.7455  0.3836  -0.6351
C       -2.7458  -0.3828  0.6351
C       2.7456  0.3835  -0.6352
C       2.7458  -0.3824  0.6353
H       -1.3850  0.8234  -2.1040
H       -2.7329  1.4383  -0.3941
H       -3.5927  0.1824  -1.2709
H       -3.5926  -0.1813  1.2710
H       -2.7335  -1.4375  0.3942
H       -1.3346  0.7962  1.6550
H       -1.3854  -0.8239  2.1035
H       1.3348  -0.7969  -1.6543
H       1.3852  0.8231  -2.0998
H       3.5926  0.1865  -1.2710
H       2.7330  1.4383  -0.3948
H       2.7338  -1.4372  0.3948
H       3.5926  -0.1849  1.2712
H       1.3809  -0.8231  2.0995
H       1.3343  0.7970  1.6546
H       -1.3348  -0.7966  -1.6546
