27

Co      0.0000  -0.0427  -0.0422
Cl      0.0002  -2.2578  -0.2105
Cl      -0.0001  2.3211  0.2214
N       -1.4814  0.1195  -1.3344
N       -1.5468  -0.1054  1.3677
N       1.4814  0.1194  -1.3343
N       1.5468  -0.1050  1.3678
C       -2.7288  0.4300  -0.6112
C       -2.7781  -0.4498  0.6513
C       2.7288  0.4300  -0.6113
C       2.7781  -0.4493  0.6516
H       -0.9219  0.9994  -1.7172
H       -2.8824  1.4740  -0.3761
H       -3.5326  0.0993  -1.2486
H       -3.6107  -0.0547  1.2271
H       -2.9607  -1.4978  0.4557
H       -1.4809  0.7496  1.8995
H       -0.9962  -0.8958  1.8488
H       1.4381  -0.6597  -1.9863
H       0.9221  0.9991  -1.7219
H       3.5326  0.0945  -1.2487
H       2.8825  1.4740  -0.3767
H       2.9610  -1.4974  0.4564
H       3.6061  -0.0494  1.2318
H       1.0005  -0.8950  1.8536
H       1.4761  0.7503  1.8991
H       -1.4381  -0.6574  -1.9867
