27

Co      -0.0741  0.0000  0.0000
Cl      0.0068  -2.3338  -0.2176
Cl      0.0064  2.3339  0.2177
N       -1.5185  0.1413  -1.3088
N       -1.5185  -0.1414  1.3087
N       1.5856  0.1516  -1.3533
N       1.5856  -0.1513  1.3533
C       -2.7186  0.4162  -0.6010
C       -2.7189  -0.4155  0.6010
C       2.7743  0.4182  -0.6004
C       2.7744  -0.4171  0.6005
H       -1.1770  0.9075  -1.8762
H       -3.0059  1.4602  -0.4078
H       -3.4271  -0.0247  -1.3209
H       -3.4316  0.0258  1.3166
H       -3.0065  -1.4566  0.4078
H       -1.5149  0.7185  1.8226
H       -1.1775  -0.9080  1.8758
H       1.5992  -0.7160  -1.8575
H       1.2984  0.9096  -1.9434
H       3.5053  -0.0199  -1.2984
H       3.0577  1.4594  -0.4057
H       3.0586  -1.4583  0.4058
H       3.5053  0.0214  1.2986
H       1.2986  -0.9097  1.9430
H       1.5987  0.7161  1.8579
H       -1.5106  -0.7188  -1.8223
