27

Co      0.0741  -0.0061  0.0389
Cl      -0.0063  -2.2822  -0.2216
Cl      -0.0067  2.2864  0.2176
N       -1.3901  0.1387  -1.3709
N       -1.4032  -0.1429  1.4076
N       1.4016  0.1282  -1.3999
N       1.2575  -0.1320  1.2895
C       -2.7655  0.4267  -0.6817
C       -2.7658  -0.4203  0.6645
C       2.7591  0.4394  -0.7022
C       2.6611  -0.4031  0.6458
H       -1.4154  0.8549  -2.1030
H       -2.7143  1.4894  -0.4868
H       -3.5829  0.2473  -1.3685
H       -3.5931  -0.2731  1.3544
H       -2.6863  -1.4816  0.4517
H       -1.7235  0.6607  1.9917
H       -1.4772  -0.8727  2.1443
H       1.7051  -0.6910  -1.9553
H       1.3926  0.8326  -2.1394
H       3.5930  0.2318  -1.3520
H       2.7117  1.5049  -0.5245
H       2.5858  -1.4646  0.4207
H       3.4310  -0.2768  1.4119
H       1.2578  -0.8891  1.9747
H       1.5410  0.6498  1.9115
H       -1.6955  -0.6749  -1.9472
