27

Co      0.0000  0.0000  0.0000
Cl      0.0002  -2.2966  -0.2159
Cl      -0.0001  2.2967  0.2160
N       -1.5622  0.1550  -1.4237
N       -1.4837  -0.1551  1.3500
N       1.4837  0.1549  -1.3500
N       1.5622  -0.1546  1.4237
C       -2.7495  0.3848  -0.6290
C       -2.7007  -0.3694  0.6094
C       2.7005  0.3700  -0.6095
C       2.7497  -0.3837  0.6292
H       -1.4322  0.9147  -2.0649
H       -2.8308  1.4423  -0.4432
H       -3.6530  0.0694  -1.1457
H       -3.5646  -0.0781  1.1851
H       -2.7823  -1.4240  0.4088
H       -1.5325  0.6788  1.9051
H       -1.3345  -0.9349  1.9613
H       1.5327  -0.6794  -1.9044
H       1.3342  0.9341  -1.9620
H       3.5646  0.0789  -1.1851
H       2.7818  1.4248  -0.4094
H       2.8317  -1.4384  0.4438
H       3.6529  -0.0675  1.1460
H       1.4325  -0.9145  2.0648
H       1.6304  0.6943  1.9489
H       -1.6309  -0.6939  -1.9489
