27

Co      -0.0250  0.0061  -0.0389
Cl      0.0002  -2.3004  -0.2177
Cl      -0.0001  2.2964  0.2219
N       -1.5314  0.1131  -1.3187
N       -1.5183  -0.1091  1.2818
N       1.4939  0.1304  -1.3452
N       1.6378  -0.1260  1.4556
C       -2.8508  0.4385  -0.5537
C       -2.8510  -0.4435  0.5709
C       2.8017  0.4192  -0.5433
C       2.9001  -0.4532  0.5999
H       -1.1561  0.8304  -1.9454
H       -2.9487  1.4730  -0.2633
H       -3.6918  0.1453  -1.1670
H       -3.6815  -0.1172  1.1814
H       -2.9779  -1.4820  0.2985
H       -1.3708  0.8375  1.6666
H       -1.0952  -0.8138  1.9032
H       1.3566  -0.7888  -1.7903
H       1.1401  0.8854  -1.9253
H       3.6489  0.1464  -1.1580
H       2.8926  1.4499  -0.2470
H       3.0203  -1.4881  0.3509
H       3.8108  -0.0982  1.0984
H       1.2752  -0.8290  2.0894
H       1.5197  0.8302  1.8349
H       -1.3993  -0.8239  -1.7105
