27

Co      -0.0490  -0.0488  -0.0034
Cl      0.0068  -2.2595  -0.2200
Cl      0.0064  2.3269  0.2269
N       -1.5157  0.1226  -1.3552
N       -1.5157  -0.1126  1.3518
N       1.5419  0.1230  -1.2996
N       1.5418  -0.1126  1.2962
C       -2.6853  0.4374  -0.6032
C       -2.6855  -0.4366  0.6066
C       2.7409  0.4439  -0.5935
C       2.7411  -0.4428  0.5970
H       -1.2448  0.8610  -1.9835
H       -2.8222  1.4911  -0.3995
H       -3.5335  0.0920  -1.1771
H       -3.5334  -0.0841  1.1806
H       -2.8229  -1.4876  0.4096
H       -1.6974  0.7659  1.8190
H       -1.2823  -0.7942  2.0537
H       1.7502  -0.7222  -1.8245
H       1.2843  0.8350  -1.9603
H       3.5661  0.0976  -1.2001
H       2.8915  1.4911  -0.3876
H       2.8923  -1.4900  0.3977
H       3.5661  -0.0893  1.2036
H       1.3214  -0.7677  2.0307
H       1.7228  0.7863  1.7374
H       -1.7246  -0.7023  -1.9062
