27

Co      0.0000  0.0000  0.0000
Cl      0.0002  -2.2894  -0.2159
Cl      -0.0001  2.2895  0.2160
N       -1.4495  0.1913  -1.3070
N       -1.5281  -0.1914  1.3805
N       1.5281  0.1912  -1.3806
N       1.4495  -0.1909  1.3069
C       -2.7275  0.3721  -0.6758
C       -2.7768  -0.3861  0.6954
C       2.7766  0.3868  -0.6956
C       2.7277  -0.3710  0.6760
H       -1.3914  0.8649  -2.0623
H       -2.6690  1.4325  -0.4326
H       -3.5727  0.2385  -1.3431
H       -3.6611  -0.2276  1.3040
H       -2.7188  -1.4465  0.4670
H       -1.4202  0.7767  1.7231
H       -1.4900  -0.8458  2.1649
H       1.4204  -0.7773  -1.7224
H       1.4898  0.8449  -2.1612
H       3.6611  0.2328  -1.3068
H       2.7154  1.4473  -0.4676
H       2.6671  -1.4314  0.4333
H       3.5726  -0.2410  1.3463
H       1.3873  -0.8646  2.0578
H       1.3217  0.7627  1.6786
H       -1.3223  -0.7623  -1.6786
