27

Co      -0.0741  -0.0427  -0.0422
Cl      0.0068  -2.2224  -0.2126
Cl      0.0064  2.2857  0.2236
N       -1.5133  0.1184  -1.3487
N       -1.5002  -0.1043  1.3084
N       1.5020  0.1324  -1.3196
N       1.6459  -0.1179  1.4266
C       -2.7659  0.4321  -0.5930
C       -2.7662  -0.4371  0.6135
C       2.7725  0.4193  -0.5728
C       2.8708  -0.4534  0.6327
H       -1.2425  0.8874  -1.9406
H       -2.8158  1.4674  -0.2877
H       -3.5300  0.2417  -1.3432
H       -3.5197  -0.2069  1.3610
H       -2.8450  -1.4765  0.3330
H       -1.3881  0.8365  1.7004
H       -1.2185  -0.8034  1.9691
H       1.4301  -0.7435  -1.8266
H       1.2656  0.9129  -1.9009
H       3.5198  0.2527  -1.3599
H       2.8223  1.4509  -0.2550
H       2.9499  -1.4891  0.3690
H       3.6817  -0.1977  1.3037
H       1.4378  -0.7892  2.1357
H       1.5663  0.8488  1.7836
H       -1.4435  -0.7590  -1.8318
