27

Co      0.0250  0.0000  0.0000
Cl      0.0002  -2.2451  -0.2142
Cl      -0.0001  2.2451  0.2143
N       -1.4125  0.1536  -1.3580
N       -1.4910  -0.1537  1.4316
N       1.4501  0.1399  -1.3315
N       1.3715  -0.1396  1.2578
C       -2.7122  0.3927  -0.6526
C       -2.7615  -0.4067  0.6722
C       2.7614  0.4120  -0.6632
C       2.7124  -0.3961  0.6437
H       -1.3203  0.8950  -2.0356
H       -2.6766  1.4610  -0.4730
H       -3.6447  0.1608  -1.1639
H       -3.7285  -0.1498  1.1293
H       -2.7263  -1.4750  0.5073
H       -1.7272  0.6756  1.9785
H       -1.4189  -0.8759  2.1383
H       1.6728  -0.6990  -1.8572
H       1.3368  0.8432  -2.0525
H       3.6875  0.1551  -1.1703
H       2.7394  1.4803  -0.4943
H       2.6912  -1.4645  0.4600
H       3.5991  -0.1633  1.2097
H       1.2387  -0.8629  1.9490
H       1.5741  0.6844  1.8134
H       -1.6338  -0.6613  -1.9340
