27

Co      0.0000  0.0000  0.0000
Cl      0.0002  -2.2451  -0.2142
Cl      -0.0001  2.2451  0.2143
N       -1.3934  0.1391  -1.3617
N       -1.3934  -0.1392  1.3616
N       1.3934  0.1390  -1.3616
N       1.3934  -0.1388  1.3616
C       -2.7734  0.4229  -0.6735
C       -2.7736  -0.4221  0.6735
C       2.7734  0.4228  -0.6736
C       2.7736  -0.4217  0.6737
H       -1.4176  0.8676  -2.0851
H       -2.7169  1.4835  -0.4724
H       -3.5832  0.2528  -1.3740
H       -3.5787  -0.2517  1.3787
H       -2.7175  -1.4855  0.4724
H       -1.6931  0.6638  1.9471
H       -1.4180  -0.8682  2.0846
H       1.6979  -0.6645  -1.9464
H       1.4178  0.8673  -2.0853
H       3.5832  0.2524  -1.3741
H       2.7170  1.4863  -0.4730
H       2.7178  -1.4852  0.4730
H       3.5831  -0.2508  1.3743
H       1.4179  -0.8674  2.0850
H       1.6973  0.6646  1.9467
H       -1.6979  -0.6642  -1.9468
