27

Co      0.0490  0.0427  0.0422
Cl      -0.0063  -2.3493  -0.2192
Cl      -0.0067  2.2862  0.2084
N       -1.3811  0.1575  -1.2671
N       -1.3942  -0.1718  1.3072
N       1.4335  0.1569  -1.3962
N       1.2894  -0.1708  1.2892
C       -2.8037  0.4128  -0.6844
C       -2.8039  -0.4064  0.6639
C       2.7972  0.4210  -0.7140
C       2.6992  -0.3847  0.6543
H       -1.1734  0.8726  -1.9308
H       -2.9001  1.4705  -0.5097
H       -3.5520  0.1015  -1.4078
H       -3.5668  -0.1342  1.3857
H       -2.8722  -1.4628  0.4645
H       -1.4420  0.6518  1.8799
H       -1.1982  -0.9577  1.9014
H       1.4550  -0.7234  -1.8729
H       1.2326  0.8784  -2.0575
H       3.6077  0.0853  -1.3457
H       2.8802  1.4853  -0.5573
H       2.7543  -1.4449  0.4433
H       3.4456  -0.1370  1.4022
H       1.0607  -1.0022  1.8221
H       1.3178  0.6182  1.9166
H       -1.3825  -0.7300  -1.7479
