27

Co      -0.0250  -0.0427  -0.0422
Cl      0.0002  -2.2739  -0.2144
Cl      -0.0001  2.3372  0.2253
N       -1.5582  0.1002  -1.3439
N       -1.5451  -0.0861  1.3036
N       1.5206  0.1175  -1.3704
N       1.6646  -0.1030  1.4775
C       -2.8320  0.4179  -0.6066
C       -2.8323  -0.4229  0.6271
C       2.7830  0.3985  -0.5962
C       2.8813  -0.4326  0.6561
H       -1.3158  0.9470  -1.8657
H       -2.7703  1.4668  -0.3349
H       -3.7016  0.2821  -1.2437
H       -3.6868  -0.2473  1.2660
H       -2.7995  -1.4759  0.3802
H       -1.6102  0.7359  1.8721
H       -1.2919  -0.8630  1.8942
H       1.6273  -0.6232  -2.0833
H       1.2998  1.0019  -1.8500
H       3.6587  0.2788  -1.2376
H       2.7114  1.4438  -0.3186
H       2.8390  -1.4819  0.4326
H       3.8206  -0.2239  1.1814
H       1.4764  -0.8782  2.0848
H       1.7635  0.7285  2.0403
H       -1.6701  -0.6584  -2.0035
