27

Co      -0.0741  0.0000  0.0000
Cl      0.0068  -2.2503  -0.2106
Cl      0.0064  2.2503  0.2107
N       -1.4881  0.1412  -1.3323
N       -1.4881  -0.1414  1.3322
N       1.5552  0.1515  -1.3768
N       1.5552  -0.1513  1.3769
C       -2.7697  0.4087  -0.6220
C       -2.7699  -0.4080  0.6220
C       2.8253  0.4106  -0.6215
C       2.8255  -0.4095  0.6215
H       -1.2153  0.9163  -1.9101
H       -2.8975  1.4498  -0.3740
H       -3.5038  0.1275  -1.3730
H       -3.5083  -0.1264  1.3686
H       -2.8982  -1.4491  0.3740
H       -1.3729  0.7414  1.8187
H       -1.2157  -0.9169  1.9096
H       1.4573  -0.7389  -1.8536
H       1.3367  0.9185  -1.9772
H       3.5820  0.1323  -1.3505
H       2.9494  1.4518  -0.3719
H       2.9502  -1.4507  0.3720
H       3.5820  -0.1307  1.3507
H       1.3368  -0.9185  1.9769
H       1.4567  0.7390  1.8540
H       -1.3687  -0.7417  -1.8184
