27

Co      -0.0741  0.0061  -0.0389
Cl      0.0068  -2.2987  -0.2139
Cl      0.0064  2.2946  0.2181
N       -1.4678  0.1490  -1.3999
N       -1.4547  -0.1451  1.3630
N       1.4564  0.1593  -1.3708
N       1.6003  -0.1550  1.4813
C       -2.7338  0.3989  -0.6363
C       -2.7340  -0.4039  0.6535
C       2.7404  0.3861  -0.6161
C       2.8387  -0.4202  0.6726
H       -1.2969  0.9206  -2.0177
H       -2.7604  1.4516  -0.4182
H       -3.5911  0.1556  -1.2433
H       -3.5763  -0.1275  1.2622
H       -2.7897  -1.4607  0.4534
H       -1.4928  0.7032  1.8946
H       -1.2359  -0.9040  1.9755
H       1.5162  -0.6740  -1.9295
H       1.3201  0.9424  -1.9817
H       3.5809  0.1703  -1.2600
H       2.7632  1.4389  -0.3818
H       2.8908  -1.4770  0.4857
H       3.7429  -0.1221  1.2005
H       1.4552  -0.8860  2.1458
H       1.6793  0.7155  1.9741
H       -1.5258  -0.6896  -1.9384
