27

Co      -0.0250  -0.0427  -0.0422
Cl      0.0002  -2.3094  -0.2122
Cl      -0.0001  2.3727  0.2231
N       -1.5596  0.1515  -1.3586
N       -1.5465  -0.1375  1.3183
N       1.5221  0.1651  -1.3850
N       1.6660  -0.1506  1.4921
C       -2.7416  0.4142  -0.5906
C       -2.7419  -0.4192  0.6111
C       2.6926  0.3949  -0.5802
C       2.7909  -0.4290  0.6401
H       -1.2375  0.9542  -1.8926
H       -3.0075  1.4561  -0.3818
H       -3.4724  0.0018  -1.2950
H       -3.4621  0.0330  1.3128
H       -3.0368  -1.4624  0.4270
H       -1.5261  0.7529  1.7860
H       -1.2136  -0.8702  1.9211
H       1.5425  -0.6402  -1.9934
H       1.2215  1.0054  -1.8763
H       3.4295  0.0067  -1.2888
H       2.9449  1.4341  -0.3617
H       3.0725  -1.4722  0.4757
H       3.5914  0.0482  1.2326
H       1.3937  -0.8817  2.1111
H       1.6787  0.7456  1.9505
H       -1.5815  -0.6754  -1.9174
