27

Co      0.0000  -0.0427  -0.0422
Cl      0.0002  -2.2739  -0.2144
Cl      -0.0001  2.3372  0.2253
N       -1.5476  0.0969  -1.3517
N       -1.6130  -0.0828  1.3851
N       1.5476  0.1006  -1.3517
N       1.6130  -0.0861  1.3851
C       -2.7808  0.4174  -0.5345
C       -2.8301  -0.4372  0.5747
C       2.7809  0.4174  -0.5346
C       2.8301  -0.4368  0.5749
H       -1.2748  0.9566  -1.8490
H       -2.9125  1.4635  -0.3092
H       -3.6328  0.0808  -1.1132
H       -3.7064  -0.0362  1.0962
H       -2.9909  -1.4845  0.3889
H       -1.8509  0.7162  1.9816
H       -1.3490  -0.8531  1.9806
H       1.8089  -0.6262  -2.0722
H       1.2749  0.9601  -1.8499
H       3.6328  0.0723  -1.1104
H       2.9193  1.4569  -0.3136
H       2.9978  -1.4803  0.3933
H       3.7063  -0.0272  1.0935
H       1.3534  -0.8560  1.9816
H       1.8469  0.7169  1.9851
H       -1.8126  -0.6239  -2.0689
