27

Co      -0.0490  0.0000  0.0000
Cl      0.0068  -2.2503  -0.2106
Cl      0.0064  2.2503  0.2107
N       -1.5595  0.1204  -1.3567
N       -1.5595  -0.1205  1.3566
N       1.5856  0.1171  -1.3010
N       1.5856  -0.1168  1.3010
C       -2.7245  0.4116  -0.6108
C       -2.7248  -0.4109  0.6108
C       2.7802  0.4181  -0.6011
C       2.7803  -0.4170  0.6012
H       -1.0276  0.9786  -1.7708
H       -2.9369  1.4604  -0.4174
H       -3.5710  -0.0031  -1.1561
H       -3.5755  0.0042  1.1517
H       -2.9376  -1.4569  0.4174
H       -1.5054  0.6797  1.9737
H       -1.0280  -0.9792  1.7703
H       1.5305  -0.7000  -1.8880
H       1.0670  0.9489  -1.7558
H       3.6037  0.0019  -1.1791
H       3.0024  1.4642  -0.4017
H       3.0032  -1.4631  0.4017
H       3.6037  -0.0003  1.1793
H       1.0716  -0.9490  1.7555
H       1.5300  0.7001  1.8884
H       -1.5011  -0.6801  -1.9734
