27

Co      0.0000  0.0000  0.0000
Cl      0.0002  -2.2843  -0.2195
Cl      -0.0001  2.2843  0.2196
N       -1.3631  0.1356  -1.3670
N       -1.3631  -0.1357  1.3669
N       1.3631  0.1355  -1.3670
N       1.3631  -0.1352  1.3670
C       -2.7377  0.4229  -0.6735
C       -2.7380  -0.4221  0.6735
C       2.7378  0.4228  -0.6736
C       2.7380  -0.4217  0.6737
H       -1.3855  0.8623  -2.0904
H       -2.6741  1.4835  -0.4706
H       -3.5512  0.2581  -1.3704
H       -3.5466  -0.2570  1.3751
H       -2.6748  -1.4855  0.4706
H       -1.6628  0.6692  1.9506
H       -1.3860  -0.8629  2.0899
H       1.6676  -0.6698  -1.9499
H       1.3857  0.8620  -2.0907
H       3.5511  0.2577  -1.3706
H       2.6742  1.4863  -0.4712
H       2.6751  -1.4852  0.4713
H       3.5511  -0.2562  1.3707
H       1.3859  -0.8621  2.0903
H       1.6671  0.6699  1.9503
H       -1.6676  -0.6695  -1.9503
