27

Co      0.0000  0.0427  0.0422
Cl      0.0002  -2.2695  -0.2196
Cl      -0.0001  2.2063  0.2089
N       -1.4012  0.1674  -1.3298
N       -1.3358  -0.1817  1.2963
N       1.4012  0.1673  -1.3298
N       1.3358  -0.1812  1.2963
C       -2.8112  0.4146  -0.6986
C       -2.7624  -0.3934  0.6584
C       2.8113  0.4146  -0.6987
C       2.7624  -0.3930  0.6586
H       -1.4199  0.7420  -2.2276
H       -2.7028  1.4821  -0.5012
H       -3.7340  0.2356  -1.2480
H       -3.6558  -0.2780  1.2697
H       -2.6257  -1.4597  0.4216
H       -1.4273  0.7222  1.7298
H       -1.3465  -0.8466  2.0951
H       1.4706  -0.8134  -1.6415
H       1.4201  0.7417  -2.2234
H       3.7339  0.2396  -1.2481
H       2.7029  1.4849  -0.5018
H       2.6260  -1.4593  0.4222
H       3.6603  -0.2816  1.2653
H       1.3419  -0.8459  2.0910
H       1.4316  0.7229  1.7295
H       -1.4706  -0.8152  -1.6419
