27

Co      0.0000  0.0000  0.0000
Cl      0.0002  -2.3286  -0.2213
Cl      -0.0001  2.3287  0.2214
N       -1.4671  0.1834  -1.3492
N       -1.4671  -0.1835  1.3491
N       1.4672  0.1833  -1.3491
N       1.4671  -0.1830  1.3491
C       -2.7034  0.4140  -0.6900
C       -2.7037  -0.4133  0.6899
C       2.7035  0.4140  -0.6901
C       2.7037  -0.4129  0.6902
H       -1.3220  0.8281  -2.1105
H       -2.7502  1.4744  -0.4869
H       -3.5287  0.1655  -1.3372
H       -3.5286  -0.1644  1.3373
H       -2.7509  -1.4737  0.4869
H       -1.4661  0.7617  1.7219
H       -1.3224  -0.8287  2.1101
H       1.4664  -0.7623  -1.7212
H       1.3222  0.8278  -2.1063
H       3.5286  0.1696  -1.3402
H       2.7475  1.4745  -0.4876
H       2.7483  -1.4734  0.4876
H       3.5286  -0.1680  1.3403
H       1.3179  -0.8279  2.1060
H       1.4659  0.7624  1.7216
H       -1.4664  -0.7621  -1.7216
