27

Co      0.0250  -0.0061  0.0389
Cl      0.0002  -2.3228  -0.2158
Cl      -0.0001  2.3270  0.2118
N       -1.4251  0.2139  -1.3960
N       -1.4382  -0.2181  1.4327
N       1.4627  0.1964  -1.3694
N       1.3187  -0.2002  1.2590
C       -2.7430  0.3538  -0.6717
C       -2.7433  -0.3474  0.6546
C       2.7922  0.3731  -0.6824
C       2.6942  -0.3368  0.6260
H       -1.4008  0.9225  -2.1138
H       -2.7944  1.4143  -0.4904
H       -3.6044  0.0657  -1.2567
H       -3.6191  -0.0916  1.2380
H       -2.7664  -1.4038  0.4552
H       -1.3504  0.7059  1.8578
H       -1.4627  -0.9403  2.1550
H       1.3606  -0.7558  -1.7327
H       1.4173  0.8670  -2.1299
H       3.6472  0.0682  -1.2630
H       2.8535  1.4373  -0.5080
H       2.7275  -1.3970  0.4041
H       3.4852  -0.1133  1.3229
H       1.2780  -0.9235  1.9651
H       1.1965  0.7146  1.6889
H       -1.3179  -0.7201  -1.8133
