27

Co      0.0000  0.0488  0.0034
Cl      0.0002  -2.3551  -0.2246
Cl      -0.0001  2.2879  0.2180
N       -1.3822  0.1340  -1.2558
N       -1.4607  -0.1442  1.3327
N       1.4607  0.1339  -1.3294
N       1.3821  -0.1437  1.2591
C       -2.7110  0.4002  -0.6268
C       -2.7603  -0.4142  0.6431
C       2.7601  0.4149  -0.6466
C       2.7112  -0.3991  0.6237
H       -1.2067  0.8458  -1.9381
H       -2.7668  1.4549  -0.4110
H       -3.5035  0.1420  -1.3118
H       -3.5919  -0.1379  1.2693
H       -2.8165  -1.4689  0.4352
H       -1.5331  0.7041  1.8615
H       -1.2683  -0.8940  1.9700
H       1.5064  -0.7686  -1.7732
H       1.3051  0.8259  -2.0414
H       3.5919  0.1318  -1.2726
H       2.8160  1.4696  -0.4460
H       2.7677  -1.4538  0.4015
H       3.5035  -0.1468  1.3087
H       1.1700  -0.9129  1.8673
H       1.4346  0.6901  1.8170
H       -1.4082  -0.7537  -1.7295
