27

Co      0.0000  0.0488  0.0034
Cl      0.0002  -2.3070  -0.2154
Cl      -0.0001  2.2397  0.2088
N       -1.3017  0.1512  -1.2884
N       -1.3802  -0.1614  1.3653
N       1.3802  0.1474  -1.3620
N       1.3016  -0.1572  1.2917
C       -2.7172  0.3962  -0.6612
C       -2.7665  -0.4102  0.6775
C       2.7664  0.4109  -0.6810
C       2.7174  -0.3950  0.6581
H       -1.2570  0.9086  -1.9479
H       -2.7971  1.4470  -0.4586
H       -3.3763  0.1529  -1.5272
H       -3.4646  -0.1488  1.4847
H       -2.8468  -1.4638  0.4829
H       -1.5139  0.6389  1.9746
H       -1.3186  -0.9568  1.9798
H       1.4910  -0.7035  -1.8826
H       1.3554  0.8849  -2.0550
H       3.4646  0.1465  -1.4881
H       2.8425  1.4683  -0.4898
H       2.7943  -1.4524  0.4454
H       3.3762  -0.1615  1.5242
H       1.2203  -0.9719  1.8808
H       1.4192  0.6249  1.9263
H       -1.3891  -0.6885  -1.8425
