27

Co      -0.0250  0.0000  0.0000
Cl      0.0002  -2.3410  -0.2176
Cl      -0.0001  2.3411  0.2177
N       -1.5260  0.1508  -1.3554
N       -1.5260  -0.1509  1.3553
N       1.5670  0.1644  -1.4554
N       1.5669  -0.1641  1.4555
C       -2.7912  0.4127  -0.6316
C       -2.7914  -0.4120  0.6316
C       2.7913  0.4081  -0.6408
C       2.7914  -0.4070  0.6409
H       -1.1100  0.9125  -1.9084
H       -2.9023  1.4587  -0.3934
H       -3.6323  0.1046  -1.2339
H       -3.6367  -0.1035  1.2295
H       -2.9029  -1.4580  0.3934
H       -1.3297  0.7596  1.7994
H       -1.1104  -0.9131  1.9079
H       1.3846  -0.7375  -1.9193
H       1.1921  0.9441  -1.9951
H       3.6778  0.0996  -1.1885
H       2.8887  1.4542  -0.4076
H       2.8896  -1.4531  0.4077
H       3.6777  -0.0981  1.1886
H       1.1923  -0.9442  1.9948
H       1.3841  0.7376  1.9197
H       -1.3254  -0.7600  -1.7990
