27

Co      0.0250  0.0427  0.0422
Cl      0.0002  -2.3087  -0.2250
Cl      -0.0001  2.2455  0.2142
N       -1.4284  0.1699  -1.3874
N       -1.3630  -0.1842  1.3538
N       1.3875  0.1561  -1.2872
N       1.3220  -0.1700  1.2537
C       -2.7482  0.4120  -0.7211
C       -2.6993  -0.3908  0.6809
C       2.7483  0.4165  -0.7122
C       2.6993  -0.3950  0.6721
H       -1.5229  0.7861  -2.2426
H       -2.6624  1.4668  -0.4738
H       -3.5144  0.3185  -1.5117
H       -3.4407  -0.3609  1.5289
H       -2.5854  -1.4444  0.3942
H       -1.3506  0.7224  1.7987
H       -1.4494  -0.8907  2.1101
H       1.3302  -0.8363  -1.5898
H       1.4411  0.7539  -2.1519
H       3.4688  0.3270  -1.5602
H       2.6733  1.4742  -0.4608
H       2.5965  -1.4485  0.3812
H       3.3951  -0.3690  1.5774
H       1.3630  -0.8581  2.0195
H       1.2912  0.7459  1.6777
H       -1.3894  -0.8153  -1.7108
