27

Co      0.0000  -0.0061  0.0389
Cl      0.0002  -2.2358  -0.2162
Cl      -0.0001  2.2400  0.2123
N       -1.4082  0.1707  -1.2914
N       -1.4213  -0.1749  1.3281
N       1.4868  0.1707  -1.3649
N       1.3427  -0.1745  1.2545
C       -2.7455  0.3864  -0.6437
C       -2.7458  -0.3800  0.6265
C       2.7947  0.4011  -0.6634
C       2.6967  -0.3648  0.6071
H       -1.3543  0.8148  -2.0831
H       -2.7472  1.4432  -0.4117
H       -3.5853  0.1689  -1.2803
H       -3.6000  -0.1948  1.2616
H       -2.7192  -1.4326  0.3766
H       -1.3510  0.7893  1.6771
H       -1.4161  -0.8325  2.1244
H       1.4166  -0.8165  -1.6763
H       1.4527  0.7949  -2.1820
H       3.6736  0.1632  -1.2412
H       2.7964  1.4579  -0.4467
H       2.6704  -1.4175  0.3429
H       3.5116  -0.2082  1.3011
H       1.3134  -0.8514  2.0172
H       1.2525  0.7753  1.6325
H       -1.3185  -0.8036  -1.6326
