27

Co      0.0000  -0.0061  0.0389
Cl      0.0002  -2.2430  -0.2162
Cl      -0.0001  2.2472  0.2123
N       -1.4690  0.1755  -1.3856
N       -1.4036  -0.1797  1.3487
N       1.4690  0.1754  -1.3855
N       1.4035  -0.1792  1.3487
C       -2.7653  0.3914  -0.6583
C       -2.7165  -0.3702  0.6214
C       2.7654  0.3913  -0.6584
C       2.7164  -0.3698  0.6217
H       -1.4321  0.8241  -2.1753
H       -2.7550  1.4481  -0.4337
H       -3.6510  0.1688  -1.2344
H       -3.5773  -0.2045  1.2550
H       -2.6779  -1.4229  0.3642
H       -1.3282  0.7676  1.7267
H       -1.3957  -0.8615  2.1135
H       1.3939  -0.7948  -1.7260
H       1.4323  0.8238  -2.1711
H       3.6510  0.1729  -1.2345
H       2.7551  1.4482  -0.4343
H       2.6782  -1.4225  0.3648
H       3.5773  -0.2081  1.2551
H       1.3912  -0.8607  2.1095
H       1.3279  0.7683  1.7264
H       -1.3939  -0.7966  -1.7264
