27

Co      -0.0741  -0.0488  -0.0034
Cl      0.0068  -2.3039  -0.2217
Cl      0.0064  2.3713  0.2286
N       -1.4823  0.1224  -1.3101
N       -1.4823  -0.1124  1.3066
N       1.5495  0.1364  -1.3546
N       1.5494  -0.1261  1.3513
C       -2.7690  0.4287  -0.6197
C       -2.7692  -0.4280  0.6230
C       2.8246  0.4306  -0.6191
C       2.8248  -0.4295  0.6226
H       -1.2579  0.8622  -1.9521
H       -2.7701  1.4797  -0.3674
H       -3.6066  0.2244  -1.2688
H       -3.6065  -0.2166  1.2723
H       -2.7708  -1.4789  0.3775
H       -1.5331  0.7919  1.7401
H       -1.2953  -0.7954  2.0223
H       1.6451  -0.7254  -1.8663
H       1.3792  0.8681  -2.0155
H       3.6847  0.2256  -1.2463
H       2.8257  1.4779  -0.3691
H       2.8265  -1.4768  0.3792
H       3.6847  -0.2173  1.2498
H       1.4164  -0.8008  2.0858
H       1.6177  0.7895  1.7792
H       -1.5603  -0.7283  -1.8273
