27

Co      0.0000  0.0061  -0.0389
Cl      0.0002  -2.3004  -0.2177
Cl      -0.0001  2.2964  0.2219
N       -1.6087  0.1313  -1.3404
N       -1.5956  -0.1273  1.3035
N       1.5301  0.1350  -1.2667
N       1.6741  -0.1306  1.3772
C       -2.7913  0.4109  -0.5787
C       -2.7915  -0.4159  0.5959
C       2.7422  0.3961  -0.5592
C       2.8406  -0.4302  0.6157
H       -1.2563  0.8633  -1.9546
H       -2.8788  1.4539  -0.3075
H       -3.6776  0.1327  -1.1368
H       -3.6673  -0.1046  1.1513
H       -2.9081  -1.4601  0.3426
H       -1.4200  0.8119  1.7025
H       -1.1954  -0.8467  1.9124
H       1.3466  -0.7860  -1.7055
H       1.1583  0.8864  -1.8480
H       3.5892  0.1384  -1.1762
H       2.8336  1.4326  -0.2775
H       2.9612  -1.4708  0.3814
H       3.7511  -0.0902  1.1166
H       1.2934  -0.8301  2.0121
H       1.5097  0.8274  1.7501
H       -1.4485  -0.7984  -1.7464
