27

Co      0.0250  0.0427  0.0422
Cl      0.0002  -2.3139  -0.2213
Cl      -0.0001  2.2507  0.2106
N       -1.4244  0.1748  -1.3447
N       -1.4375  -0.1891  1.3848
N       1.4620  0.1611  -1.3181
N       1.3180  -0.1750  1.2111
C       -2.8163  0.4078  -0.6753
C       -2.8165  -0.4014  0.6547
C       2.8655  0.4270  -0.6859
C       2.7674  -0.3907  0.6262
H       -1.3814  0.7926  -2.1649
H       -2.7808  1.4617  -0.4372
H       -3.6477  0.2200  -1.3455
H       -3.6624  -0.2527  1.3235
H       -2.7529  -1.4540  0.3919
H       -1.3846  0.7475  1.7822
H       -1.4062  -0.8777  2.1355
H       1.3642  -0.8615  -1.5733
H       1.3978  0.7408  -2.1774
H       3.6905  0.2188  -1.3519
H       2.8437  1.4838  -0.4585
H       2.7177  -1.4435  0.3446
H       3.5285  -0.2706  1.4084
H       1.2215  -0.8647  1.9419
H       1.2270  0.7563  1.6170
H       -1.3252  -0.8258  -1.6502
