27

Co      0.0250  0.0488  0.0034
Cl      0.0002  -2.3586  -0.2171
Cl      -0.0001  2.2913  0.2105
N       -1.3874  0.1801  -1.3535
N       -1.4659  -0.1903  1.4304
N       1.4250  0.1626  -1.3269
N       1.3464  -0.1724  1.2567
C       -2.7145  0.3648  -0.6730
C       -2.7638  -0.3788  0.6893
C       2.7636  0.3840  -0.6837
C       2.7147  -0.3682  0.6607
H       -1.3157  0.9340  -2.0177
H       -2.7474  1.4368  -0.5451
H       -3.6195  0.0517  -1.1910
H       -3.7033  -0.0475  1.1530
H       -2.7971  -1.4508  0.5693
H       -1.6842  0.5860  2.0698
H       -1.3773  -0.9822  2.0496
H       1.6066  -0.6733  -1.8571
H       1.3321  0.8784  -2.0383
H       3.6623  0.0498  -1.1974
H       2.8065  1.4598  -0.5626
H       2.7582  -1.4440  0.5182
H       3.5739  -0.0647  1.2334
H       1.1971  -0.9655  1.8642
H       1.5348  0.5947  1.9009
H       -1.5639  -0.6355  -1.9378
