27

Co      0.0000  0.0000  0.0000
Cl      0.0002  -2.3338  -0.2176
Cl      -0.0001  2.3339  0.2177
N       -1.5434  0.1508  -1.3311
N       -1.5434  -0.1509  1.3310
N       1.5434  0.1507  -1.3310
N       1.5434  -0.1504  1.3311
C       -2.7594  0.3826  -0.5963
C       -2.7596  -0.3819  0.5963
C       2.7594  0.3826  -0.5965
C       2.7596  -0.3815  0.5965
H       -1.3240  0.9303  -1.9183
H       -2.9324  1.4266  -0.3676
H       -3.5224  0.0514  -1.2923
H       -3.5269  -0.0503  1.2879
H       -2.9330  -1.4231  0.3676
H       -1.4339  0.7299  1.8242
H       -1.3245  -0.9309  1.9179
H       1.4296  -0.7305  -1.8235
H       1.3242  0.9300  -1.9186
H       3.5224  0.0510  -1.2925
H       2.9325  1.4238  -0.3682
H       2.9333  -1.4227  0.3682
H       3.5223  -0.0494  1.2926
H       1.3244  -0.9301  1.9182
H       1.4291  0.7306  1.8239
H       -1.4296  -0.7302  -1.8239
