27

Co      -0.0490  0.0000  0.0000
Cl      0.0068  -2.2946  -0.2123
Cl      0.0064  2.2947  0.2124
N       -1.5653  0.1301  -1.3311
N       -1.5653  -0.1302  1.3310
N       1.5915  0.1267  -1.2755
N       1.5914  -0.1264  1.2755
C       -2.7632  0.4054  -0.6289
C       -2.7634  -0.4047  0.6289
C       2.8189  0.4119  -0.6192
C       2.8190  -0.4108  0.6193
H       -1.1057  0.9674  -1.7978
H       -2.9197  1.4678  -0.4813
H       -3.6871  -0.0122  -1.0759
H       -3.6871  0.0133  1.0761
H       -2.9203  -1.4642  0.4813
H       -1.6643  0.6367  1.9878
H       -1.1062  -0.9679  1.7973
H       1.6940  -0.6570  -1.9021
H       1.1452  0.9376  -1.7829
H       3.7198  -0.0072  -1.0990
H       2.9852  1.4715  -0.4656
H       2.9860  -1.4704  0.4656
H       3.7197  0.0088  1.0991
H       1.1497  -0.9377  1.7825
H       1.6935  0.6571  1.9024
H       -1.6646  -0.6371  -1.9875
