27

Co      0.0000  0.0427  0.0422
Cl      0.0002  -2.3531  -0.2267
Cl      -0.0001  2.2899  0.2159
N       -1.3948  0.1690  -1.3232
N       -1.3294  -0.1833  1.2897
N       1.3949  0.1689  -1.3232
N       1.3294  -0.1828  1.2897
C       -2.8097  0.4129  -0.6986
C       -2.7609  -0.3917  0.6584
C       2.8098  0.4129  -0.6987
C       2.7609  -0.3913  0.6586
H       -1.4117  0.7434  -2.2193
H       -2.7061  1.4804  -0.5045
H       -3.7275  0.2273  -1.2546
H       -3.6494  -0.2697  1.2764
H       -2.6291  -1.4579  0.4249
H       -1.4158  0.7207  1.7248
H       -1.3383  -0.8481  2.0868
H       1.4591  -0.8119  -1.6366
H       1.4119  0.7431  -2.2151
H       3.7275  0.2313  -1.2548
H       2.7062  1.4832  -0.5052
H       2.6294  -1.4576  0.4256
H       3.6538  -0.2733  1.2720
H       1.3338  -0.8473  2.0827
H       1.4201  0.7215  1.7245
H       -1.4591  -0.8137  -1.6370
