27

Co      0.0490  0.0488  0.0034
Cl      -0.0063  -2.2750  -0.2101
Cl      -0.0067  2.2077  0.2034
N       -1.3863  0.1701  -1.2822
N       -1.4649  -0.1803  1.3591
N       1.4387  0.1695  -1.4114
N       1.3601  -0.1793  1.3411
C       -2.7437  0.3720  -0.6635
C       -2.7931  -0.3861  0.6798
C       2.7373  0.3802  -0.6931
C       2.6884  -0.3644  0.6702
H       -1.3025  0.9018  -1.9730
H       -2.7835  1.4440  -0.5267
H       -3.6196  0.0671  -1.2185
H       -3.7034  -0.0630  1.1805
H       -2.8333  -1.4581  0.5510
H       -1.6808  0.6086  1.9708
H       -1.3641  -0.9501  2.0049
H       1.6330  -0.6536  -1.9638
H       1.3616  0.9076  -2.0996
H       3.6752  0.0509  -1.1565
H       2.7636  1.4560  -0.5743
H       2.7153  -1.4402  0.5299
H       3.5868  -0.0659  1.1925
H       1.2266  -0.9946  1.9255
H       1.5612  0.5750  2.0075
H       -1.5605  -0.6582  -1.8388
