27

Co      0.0741  -0.0061  0.0389
Cl      -0.0063  -2.2874  -0.2180
Cl      -0.0067  2.2916  0.2140
N       -1.4725  0.1502  -1.3367
N       -1.4856  -0.1544  1.3734
N       1.4839  0.1397  -1.3657
N       1.3399  -0.1435  1.2553
C       -2.7987  0.3997  -0.6564
C       -2.7989  -0.3932  0.6392
C       2.7923  0.4124  -0.6769
C       2.6942  -0.3761  0.6205
H       -1.5277  0.8784  -2.0671
H       -2.8088  1.4651  -0.4853
H       -3.6265  0.1578  -1.3063
H       -3.6367  -0.1837  1.2921
H       -2.7808  -1.4546  0.4501
H       -1.8007  0.6400  1.9711
H       -1.5895  -0.8961  2.1084
H       1.7823  -0.6704  -1.9348
H       1.5049  0.8560  -2.1035
H       3.6366  0.1424  -1.2898
H       2.8062  1.4779  -0.5230
H       2.6803  -1.4375  0.4191
H       3.4746  -0.1874  1.3497
H       1.3701  -0.9125  1.9388
H       1.6182  0.6292  1.8910
H       -1.7727  -0.6543  -1.9266
