27

Co      -0.0490  -0.0488  -0.0034
Cl      0.0068  -2.2719  -0.2164
Cl      0.0064  2.3393  0.2232
N       -1.5814  0.1287  -1.4258
N       -1.5813  -0.1187  1.4223
N       1.6075  0.1291  -1.3702
N       1.6075  -0.1187  1.3668
C       -2.7823  0.4631  -0.6153
C       -2.7826  -0.4624  0.6186
C       2.8380  0.4696  -0.6056
C       2.8381  -0.4685  0.6090
H       -1.2189  0.8991  -1.9813
H       -2.9520  1.5005  -0.3609
H       -3.5363  0.1436  -1.3310
H       -3.5408  -0.1358  1.3300
H       -2.9526  -1.4998  0.3710
H       -1.6044  0.7840  1.8645
H       -1.2564  -0.8323  2.0516
H       1.6527  -0.7403  -1.8700
H       1.2584  0.8731  -1.9582
H       3.5690  0.1493  -1.3541
H       3.0212  1.5033  -0.3489
H       3.0221  -1.5022  0.3590
H       3.5689  -0.1410  1.3576
H       1.2955  -0.8059  2.0286
H       1.6253  0.8044  1.7829
H       -1.6271  -0.7204  -1.9517
