27

Co      -0.0250  -0.0427  -0.0422
Cl      0.0002  -2.2578  -0.2105
Cl      -0.0001  2.3211  0.2214
N       -1.4875  0.1505  -1.2995
N       -1.4744  -0.1364  1.2592
N       1.4499  0.1640  -1.3260
N       1.5939  -0.1496  1.4331
C       -2.7298  0.3792  -0.5996
C       -2.7300  -0.3843  0.6201
C       2.6807  0.3599  -0.5892
C       2.7791  -0.3940  0.6491
H       -1.3256  0.9317  -1.9150
H       -2.8155  1.4347  -0.3918
H       -3.5719  0.0887  -1.2033
H       -3.5571  -0.0539  1.2257
H       -2.8448  -1.4410  0.4370
H       -1.4959  0.7508  1.7281
H       -1.3017  -0.8478  1.9434
H       1.5168  -0.6382  -1.9355
H       1.3096  0.9829  -1.8986
H       3.5290  0.0936  -1.1972
H       2.7529  1.4126  -0.3717
H       2.8805  -1.4508  0.4857
H       3.6909  -0.0386  1.1410
H       1.4817  -0.8592  2.1334
H       1.6529  0.7435  1.8926
H       -1.5558  -0.6733  -1.8595
