27

Co      0.0000  0.0000  0.0000
Cl      0.0002  -2.2503  -0.2106
Cl      -0.0001  2.2503  0.2107
N       -1.5891  0.1492  -1.3745
N       -1.5105  -0.1494  1.3008
N       1.5105  0.1492  -1.3008
N       1.5890  -0.1489  1.3745
C       -2.7854  0.3917  -0.6062
C       -2.7365  -0.3763  0.5865
C       2.7364  0.3769  -0.5866
C       2.7856  -0.3906  0.6064
H       -1.3813  0.9190  -1.9782
H       -2.9536  1.4357  -0.3814
H       -3.5731  0.0548  -1.2660
H       -3.4892  -0.0635  1.3009
H       -2.9051  -1.4174  0.3470
H       -1.3963  0.7240  1.8071
H       -1.2835  -0.9392  1.8746
H       1.3920  -0.7246  -1.8064
H       1.2833  0.9383  -1.8753
H       3.4847  0.0642  -1.3054
H       2.9046  1.4181  -0.3477
H       2.9545  -1.4318  0.3821
H       3.5730  -0.0528  1.2663
H       1.3816  -0.9188  1.9781
H       1.4897  0.7394  1.8510
H       -1.4902  -0.7391  -1.8510
