27

Co      0.0000  -0.0488  -0.0034
Cl      0.0002  -2.2630  -0.2125
Cl      -0.0001  2.3303  0.2194
N       -1.5521  0.1527  -1.4559
N       -1.4736  -0.1427  1.3788
N       1.4736  0.1526  -1.3822
N       1.5521  -0.1422  1.4525
C       -2.7816  0.4147  -0.6346
C       -2.7327  -0.3992  0.6183
C       2.7326  0.3999  -0.6151
C       2.7818  -0.4135  0.6382
H       -1.3031  0.9552  -2.0058
H       -2.8884  1.4558  -0.3878
H       -3.5766  0.1387  -1.3105
H       -3.4927  -0.1407  1.3487
H       -2.8400  -1.4404  0.3635
H       -1.3507  0.7554  1.8471
H       -1.2424  -0.9081  1.9729
H       1.3734  -0.6921  -1.9340
H       1.2051  0.9745  -1.9029
H       3.4882  0.1481  -1.3499
H       2.8395  1.4411  -0.3541
H       2.8894  -1.4547  0.3986
H       3.5765  -0.1300  1.3141
H       1.3405  -0.8876  2.0763
H       1.4441  0.7709  1.8910
H       -1.4716  -0.7065  -1.9785
