27

Co      -0.0490  0.0061  -0.0389
Cl      0.0068  -2.3024  -0.2214
Cl      0.0064  2.2984  0.2255
N       -1.5532  0.1242  -1.4429
N       -1.5401  -0.1202  1.4060
N       1.5009  0.1246  -1.3137
N       1.6448  -0.1202  1.4241
C       -2.6889  0.4021  -0.5787
C       -2.6891  -0.4071  0.5959
C       2.6955  0.3938  -0.5494
C       2.7938  -0.4279  0.6059
H       -1.3549  0.8947  -2.0483
H       -2.7551  1.4402  -0.2941
H       -3.5281  0.1758  -1.2162
H       -3.5178  -0.1477  1.2306
H       -2.7843  -1.4465  0.3293
H       -1.4553  0.7757  1.8725
H       -1.2940  -0.8781  2.0061
H       1.4113  -0.7694  -1.7905
H       1.2962  0.8884  -1.9221
H       3.4724  0.1913  -1.2785
H       2.7752  1.4255  -0.2478
H       2.9029  -1.4636  0.3517
H       3.6343  -0.1431  1.2189
H       1.4313  -0.8320  2.0862
H       1.5744  0.8108  1.8351
H       -1.4838  -0.7622  -1.9164
