27

Co      0.0000  0.0000  0.0000
Cl      0.0002  -2.3410  -0.2176
Cl      -0.0001  2.3411  0.2177
N       -1.6089  0.1297  -1.4029
N       -1.5303  -0.1298  1.3292
N       1.5304  0.1296  -1.3292
N       1.6089  -0.1293  1.4029
C       -2.7751  0.4137  -0.6386
C       -2.7263  -0.3982  0.6190
C       2.7261  0.3989  -0.6191
C       2.7753  -0.4125  0.6388
H       -1.1711  0.9566  -1.8856
H       -2.9174  1.4760  -0.4933
H       -3.7371  -0.0021  -1.0379
H       -3.6487  -0.0066  1.0773
H       -2.8690  -1.4578  0.4590
H       -1.6260  0.6302  1.9985
H       -1.0733  -0.9768  1.7820
H       1.6262  -0.6308  -1.9978
H       1.0731  0.9760  -1.7871
H       3.6487  0.0029  -1.0773
H       2.8685  1.4585  -0.4596
H       2.9184  -1.4721  0.4940
H       3.7370  0.0085  1.0381
H       1.1759  -0.9564  1.8899
H       1.7239  0.6456  2.0424
H       -1.7244  -0.6452  -2.0424
