27

Co      -0.0741  0.0000  0.0000
Cl      0.0068  -2.3448  -0.2251
Cl      0.0064  2.3448  0.2252
N       -1.5991  0.1253  -1.3993
N       -1.5205  -0.1254  1.3256
N       1.5877  0.1393  -1.3702
N       1.6662  -0.1390  1.4438
C       -2.7476  0.4177  -0.6023
C       -2.6987  -0.4023  0.5826
C       2.7542  0.4049  -0.5820
C       2.8034  -0.4185  0.6018
H       -1.2108  0.8575  -1.9978
H       -2.8323  1.4628  -0.3466
H       -3.6647  0.1218  -1.1080
H       -3.5809  -0.1305  1.1429
H       -2.7839  -1.4445  0.3122
H       -1.3390  0.7902  1.7589
H       -1.1130  -0.8777  1.8943
H       1.4196  -0.7877  -1.7975
H       1.2339  0.8830  -1.9581
H       3.6546  0.1327  -1.1248
H       2.8388  1.4435  -0.3139
H       2.8887  -1.4571  0.3483
H       3.7429  -0.1213  1.0857
H       1.3323  -0.8635  2.0609
H       1.5173  0.8025  1.8421
H       -1.4330  -0.8053  -1.8027
