27

Co      0.0741  0.0488  0.0034
Cl      -0.0063  -2.3107  -0.2229
Cl      -0.0067  2.2435  0.2163
N       -1.3762  0.1401  -1.3302
N       -1.3762  -0.1503  1.3335
N       1.3091  0.1296  -1.2856
N       1.3091  -0.1394  1.2889
C       -2.7833  0.3965  -0.6754
C       -2.7835  -0.3958  0.6720
C       2.7278  0.3945  -0.6763
C       2.7279  -0.3934  0.6730
H       -1.3769  0.8226  -2.1029
H       -2.6028  1.4620  -0.4500
H       -3.7219  0.3018  -1.2389
H       -3.7174  -0.3074  1.2402
H       -2.6034  -1.4641  0.4399
H       -1.4962  0.6872  1.8807
H       -1.3403  -0.8905  2.0318
H       1.3854  -0.7549  -1.7568
H       1.2559  0.8199  -2.0363
H       3.6437  0.2962  -1.2617
H       2.5512  1.4628  -0.4533
H       2.5520  -1.4617  0.4433
H       3.6436  -0.3013  1.2584
H       1.2190  -0.8873  1.9653
H       1.4119  0.6911  1.8447
H       -1.4741  -0.7515  -1.7928
