27

Co      0.0741  0.0427  0.0422
Cl      -0.0063  -2.3531  -0.2267
Cl      -0.0067  2.2899  0.2159
N       -1.4484  0.1371  -1.2965
N       -1.4616  -0.1514  1.3366
N       1.4599  0.1267  -1.3255
N       1.3159  -0.1406  1.2184
C       -2.7633  0.4114  -0.6449
C       -2.7636  -0.4050  0.6243
C       2.7569  0.4241  -0.6654
C       2.6589  -0.3878  0.6056
H       -1.2857  0.8286  -2.0022
H       -2.8315  1.4682  -0.4444
H       -3.5795  0.1263  -1.2902
H       -3.5942  -0.1589  1.2682
H       -2.8035  -1.4576  0.3991
H       -1.5447  0.6882  1.8804
H       -1.3105  -0.9137  1.9727
H       1.4948  -0.7825  -1.7566
H       1.2629  0.8062  -2.0386
H       3.5896  0.1108  -1.2737
H       2.8290  1.4809  -0.4821
H       2.7030  -1.4406  0.3681
H       3.4275  -0.1626  1.3302
H       1.0911  -0.9301  1.8031
H       1.3576  0.6773  1.8003
H       -1.4852  -0.7664  -1.7484
