27

Co      -0.0490  0.0061  -0.0389
Cl      0.0068  -2.2915  -0.2139
Cl      0.0064  2.2875  0.2181
N       -1.4823  0.1450  -1.3525
N       -1.5478  -0.1411  1.3892
N       1.5085  0.1417  -1.2968
N       1.5739  -0.1373  1.3336
C       -2.6599  0.4054  -0.5872
C       -2.7093  -0.4252  0.6239
C       2.7156  0.4119  -0.5775
C       2.7648  -0.4313  0.6144
H       -1.1757  0.9350  -1.9025
H       -2.9141  1.4473  -0.3747
H       -3.3875  0.0051  -1.2981
H       -3.4656  0.0328  1.2733
H       -2.9925  -1.4683  0.4443
H       -1.5584  0.7282  1.8926
H       -1.2129  -0.8987  1.9634
H       1.5181  -0.7219  -1.8068
H       1.2151  0.9053  -1.8831
H       3.4201  0.0145  -1.3212
H       2.9796  1.4511  -0.3590
H       3.0581  -1.4745  0.4286
H       3.4937  0.0239  1.3009
H       1.2521  -0.8685  1.9441
H       1.5831  0.7486  1.8072
H       -1.4887  -0.7000  -1.8923
