27

Co      0.0250  0.0427  0.0422
Cl      0.0002  -2.3531  -0.2267
Cl      -0.0001  2.2899  0.2159
N       -1.4072  0.1360  -1.3412
N       -1.4203  -0.1503  1.3813
N       1.4448  0.1222  -1.3146
N       1.3008  -0.1361  1.2076
C       -2.7721  0.4335  -0.6751
C       -2.7724  -0.4271  0.6546
C       2.8213  0.4527  -0.6858
C       2.7233  -0.4165  0.6261
H       -1.2098  0.8321  -2.0289
H       -2.7932  1.4874  -0.4610
H       -3.5772  0.1918  -1.3548
H       -3.5919  -0.2244  1.3328
H       -2.7652  -1.4797  0.4158
H       -1.5018  0.6868  1.9314
H       -1.2346  -0.9171  1.9995
H       1.4813  -0.8007  -1.7225
H       1.2262  0.7803  -2.0457
H       3.6200  0.1861  -1.3612
H       2.8560  1.5095  -0.4823
H       2.7301  -1.4692  0.3684
H       3.4580  -0.2379  1.4177
H       1.0543  -0.9041  1.8102
H       1.3442  0.6956  1.7662
H       -1.4424  -0.7650  -1.7994
