27

Co      0.0000  0.0000  0.0000
Cl      0.0002  -2.2574  -0.2106
Cl      -0.0001  2.2575  0.2107
N       -1.5381  0.1204  -1.3896
N       -1.5381  -0.1205  1.3895
N       1.5382  0.1204  -1.3896
N       1.5381  -0.1201  1.3896
C       -2.7887  0.4285  -0.6444
C       -2.7889  -0.4278  0.6444
C       2.7887  0.4285  -0.6446
C       2.7889  -0.4274  0.6446
H       -1.2193  0.9634  -1.8835
H       -2.8985  1.4832  -0.4618
H       -3.6164  0.1058  -1.2578
H       -3.6164  -0.1047  1.2579
H       -2.8991  -1.4825  0.4619
H       -1.7312  0.6232  2.0777
H       -1.2198  -0.9639  1.8830
H       1.7314  -0.6238  -2.0770
H       1.2195  0.9631  -1.8881
H       3.6164  0.1010  -1.2579
H       2.8986  1.4832  -0.4625
H       2.8994  -1.4821  0.4625
H       3.6164  -0.0994  1.2581
H       1.2241  -0.9632  1.8878
H       1.7309  0.6239  2.0774
H       -1.7314  -0.6236  -2.0774
