27

Co      0.0490  0.0000  0.0000
Cl      -0.0063  -2.2733  -0.2121
Cl      -0.0067  2.2734  0.2122
N       -1.3607  0.2021  -1.2775
N       -1.3607  -0.2022  1.2774
N       1.3346  0.2015  -1.3330
N       1.3345  -0.2012  1.3330
C       -2.7460  0.3561  -0.6670
C       -2.7462  -0.3554  0.6670
C       2.6905  0.3495  -0.6769
C       2.6906  -0.3484  0.6770
H       -1.4118  0.8564  -2.0953
H       -2.7270  1.4281  -0.5067
H       -3.6486  0.0998  -1.2071
H       -3.6441  -0.0987  1.2118
H       -2.7276  -1.4274  0.5067
H       -1.4142  0.7190  1.6911
H       -1.4123  -0.8570  2.0948
H       1.3933  -0.7000  -1.7716
H       1.3728  0.8818  -2.1144
H       3.6159  0.0978  -1.1843
H       2.6579  1.4253  -0.5199
H       2.6588  -1.4242  0.5199
H       3.6158  -0.0962  1.1845
H       1.3685  -0.8819  2.1141
H       1.3928  0.7001  1.7720
H       -1.4190  -0.7194  -1.6908
