27

Co      0.0000  0.0488  0.0034
Cl      0.0002  -2.3070  -0.2154
Cl      -0.0001  2.2397  0.2088
N       -1.3424  0.1628  -1.2948
N       -1.3424  -0.1731  1.2980
N       1.3424  0.1590  -1.2947
N       1.3423  -0.1688  1.2981
C       -2.7226  0.3391  -0.6595
C       -2.7228  -0.3384  0.6561
C       2.7227  0.3391  -0.6596
C       2.7228  -0.3380  0.6563
H       -1.5031  0.9136  -2.0319
H       -2.6646  1.4063  -0.4872
H       -3.5530  0.1556  -1.3238
H       -3.5484  -0.1612  1.3251
H       -2.6652  -1.4055  0.4771
H       -1.5079  0.5999  1.9494
H       -1.4665  -0.9814  1.9607
H       1.4894  -0.6645  -1.8574
H       1.5033  0.9095  -2.0359
H       3.5530  0.1590  -1.3240
H       2.6609  1.4100  -0.4841
H       2.6617  -1.4089  0.4740
H       3.5529  -0.1641  1.3208
H       1.4664  -0.9769  1.9648
H       1.5159  0.6006  1.9453
H       -1.4857  -0.6642  -1.8615
