27

Co      0.0741  0.0488  0.0034
Cl      -0.0063  -2.3551  -0.2246
Cl      -0.0067  2.2879  0.2180
N       -1.4550  0.1392  -1.3149
N       -1.4550  -0.1494  1.3182
N       1.3879  0.1287  -1.2703
N       1.3878  -0.1385  1.2737
C       -2.7633  0.4086  -0.6363
C       -2.7635  -0.4078  0.6329
C       2.7078  0.4065  -0.6371
C       2.7080  -0.4054  0.6339
H       -1.3164  0.8372  -2.0230
H       -2.8172  1.4633  -0.4268
H       -3.5868  0.1398  -1.2808
H       -3.5868  -0.1454  1.2776
H       -2.8179  -1.4625  0.4167
H       -1.5283  0.6951  1.8583
H       -1.2798  -0.9051  1.9519
H       1.4130  -0.7629  -1.7345
H       1.1954  0.8345  -1.9564
H       3.5086  0.1341  -1.3036
H       2.7656  1.4613  -0.4301
H       2.7664  -1.4602  0.4201
H       3.5085  -0.1393  1.3004
H       1.1585  -0.9019  1.8854
H       1.4394  0.6990  1.8224
H       -1.5016  -0.7595  -1.7705
