27

Co      0.0000  0.0000  0.0000
Cl      0.0002  -2.2503  -0.2106
Cl      -0.0001  2.2503  0.2107
N       -1.5273  0.1071  -1.3805
N       -1.4487  -0.1072  1.3067
N       1.4487  0.1070  -1.3068
N       1.5272  -0.1067  1.3804
C       -2.8409  0.4382  -0.6037
C       -2.7920  -0.4228  0.5841
C       2.7919  0.4235  -0.5842
C       2.8411  -0.4371  0.6039
H       -1.2368  0.9287  -1.9115
H       -3.0084  1.4872  -0.4285
H       -3.6620  0.0360  -1.1958
H       -3.5736  -0.0447  1.2352
H       -2.9600  -1.4718  0.3941
H       -1.6643  0.6359  2.0010
H       -1.1391  -0.9489  1.8080
H       1.6646  -0.6365  -2.0003
H       1.1389  0.9481  -1.8131
H       3.5736  0.0410  -1.2324
H       2.9623  1.4725  -0.3947
H       3.0122  -1.4862  0.4291
H       3.6619  -0.0296  1.1933
H       1.2416  -0.9285  1.9158
H       1.7622  0.6514  2.0448
H       -1.7628  -0.6510  -2.0448
