27

Co      -0.0250  0.0061  -0.0389
Cl      0.0002  -2.2595  -0.2085
Cl      -0.0001  2.2555  0.2127
N       -1.5393  0.1538  -1.3499
N       -1.5262  -0.1498  1.3130
N       1.5017  0.1673  -1.3764
N       1.6457  -0.1630  1.4868
C       -2.7606  0.3768  -0.6061
C       -2.7608  -0.3819  0.6232
C       2.7116  0.3575  -0.5957
C       2.8099  -0.3916  0.6522
H       -1.4049  0.9225  -1.9856
H       -2.8415  1.4323  -0.4034
H       -3.6255  0.0848  -1.1822
H       -3.6107  -0.0567  1.2012
H       -2.8708  -1.4386  0.4385
H       -1.5659  0.6992  1.8400
H       -1.3439  -0.9059  1.9434
H       1.5599  -0.6504  -1.9600
H       1.3888  0.9737  -1.9693
H       3.5826  0.0896  -1.1761
H       2.7789  1.4102  -0.3833
H       2.9065  -1.4484  0.4872
H       3.7445  -0.0414  1.1166
H       1.5240  -0.9174  2.1334
H       1.7230  0.6919  2.0045
H       -1.5989  -0.6856  -1.8839
