27

Co      0.0000  0.0488  0.0034
Cl      0.0002  -2.3179  -0.2229
Cl      -0.0001  2.2506  0.2163
N       -1.3909  0.1308  -1.3789
N       -1.3909  -0.1411  1.3822
N       1.3909  0.1308  -1.3788
N       1.3909  -0.1406  1.3822
C       -2.7332  0.4322  -0.6668
C       -2.7334  -0.4315  0.6634
C       2.7333  0.4322  -0.6669
C       2.7334  -0.4311  0.6636
H       -1.2043  0.8370  -2.0608
H       -2.7229  1.4841  -0.4363
H       -3.5577  0.2260  -1.3316
H       -3.5577  -0.2316  1.3284
H       -2.7235  -1.4862  0.4262
H       -1.4634  0.6976  1.9281
H       -1.1677  -0.9049  1.9897
H       1.4367  -0.7622  -1.8399
H       1.2045  0.8367  -2.0611
H       3.5577  0.2256  -1.3317
H       2.7230  1.4869  -0.4369
H       2.7238  -1.4858  0.4268
H       3.5576  -0.2308  1.3285
H       1.1676  -0.9041  1.9900
H       1.4631  0.6983  1.9278
H       -1.4367  -0.7619  -1.8403
