27

Co      0.0000  0.0000  0.0000
Cl      0.0002  -2.2379  -0.2142
Cl      -0.0001  2.2379  0.2143
N       -1.3816  0.1392  -1.3043
N       -1.3816  -0.1393  1.3042
N       1.3816  0.1391  -1.3042
N       1.3815  -0.1388  1.3042
C       -2.7781  0.4301  -0.6784
C       -2.7784  -0.4294  0.6784
C       2.7782  0.4301  -0.6785
C       2.7784  -0.4290  0.6786
H       -1.2434  0.8388  -2.0202
H       -2.7191  1.4955  -0.4870
H       -3.6587  0.2237  -1.2694
H       -3.6541  -0.2226  1.2740
H       -2.7197  -1.4976  0.4870
H       -1.5940  0.7024  1.8317
H       -1.2438  -0.8394  2.0197
H       1.5988  -0.7031  -1.8309
H       1.2436  0.8385  -2.0204
H       3.6587  0.2234  -1.2695
H       2.7192  1.4984  -0.4876
H       2.7200  -1.4973  0.4876
H       3.6586  -0.2218  1.2697
H       1.2438  -0.8386  2.0201
H       1.5983  0.7032  1.8313
H       -1.5988  -0.7028  -1.8313
