27

Co      0.0000  0.0488  0.0034
Cl      0.0002  -2.3623  -0.2246
Cl      -0.0001  2.2950  0.2180
N       -1.4037  0.1388  -1.3132
N       -1.4822  -0.1490  1.3901
N       1.4823  0.1387  -1.3868
N       1.4037  -0.1485  1.3166
C       -2.7062  0.3978  -0.6316
C       -2.7555  -0.4118  0.6479
C       2.7554  0.4125  -0.6514
C       2.7064  -0.3967  0.6285
H       -1.2354  0.8649  -1.9787
H       -2.7500  1.4525  -0.4157
H       -3.5251  0.1468  -1.2854
H       -3.6134  -0.1427  1.2429
H       -2.7998  -1.4665  0.4400
H       -1.5594  0.6897  1.9333
H       -1.2970  -0.9132  2.0106
H       1.5327  -0.7543  -1.8450
H       1.3338  0.8450  -2.0820
H       3.6134  0.1366  -1.2463
H       2.7992  1.4673  -0.4507
H       2.7510  -1.4514  0.4063
H       3.5250  -0.1516  1.2824
H       1.1988  -0.9320  1.9079
H       1.4609  0.6757  1.8887
H       -1.4345  -0.7393  -1.8012
