27

Co      0.0250  0.0000  0.0000
Cl      0.0002  -2.2785  -0.2084
Cl      -0.0001  2.2786  0.2085
N       -1.3679  0.1811  -1.3093
N       -1.4465  -0.1812  1.3829
N       1.4055  0.1636  -1.2827
N       1.3269  -0.1633  1.2091
C       -2.7915  0.3925  -0.6919
C       -2.8408  -0.4065  0.7115
C       2.8406  0.4118  -0.7025
C       2.7917  -0.3959  0.6830
H       -1.2442  0.9426  -1.9532
H       -2.8012  1.4617  -0.5454
H       -3.6441  0.1153  -1.2952
H       -3.7280  -0.1044  1.2606
H       -2.8510  -1.4785  0.5798
H       -1.6465  0.6354  1.9591
H       -1.3428  -0.9235  2.0559
H       1.5959  -0.6588  -1.8340
H       1.2606  0.8870  -1.9738
H       3.6870  0.1134  -1.3016
H       2.8603  1.4876  -0.5630
H       2.8121  -1.4718  0.5287
H       3.5985  -0.1216  1.3410
H       1.1626  -0.9067  1.8704
H       1.4972  0.6441  1.7902
H       -1.5531  -0.6210  -1.9146
