27

Co      -0.0250  0.0000  0.0000
Cl      0.0002  -2.2503  -0.2106
Cl      -0.0001  2.2503  0.2107
N       -1.5505  0.1469  -1.3109
N       -1.4719  -0.1471  1.2372
N       1.5129  0.1605  -1.3373
N       1.5914  -0.1602  1.4110
C       -2.7899  0.3895  -0.6197
C       -2.7411  -0.3740  0.6000
C       2.7409  0.3701  -0.6093
C       2.7902  -0.3838  0.6290
H       -1.3946  0.8850  -1.9756
H       -2.8971  1.4470  -0.4333
H       -3.6407  0.0616  -1.1983
H       -3.5523  -0.0703  1.2378
H       -2.8487  -1.4287  0.3990
H       -1.5069  0.6992  1.7683
H       -1.2968  -0.9052  1.8721
H       1.5663  -0.6771  -1.8882
H       1.3785  0.9362  -1.9593
H       3.5979  0.0664  -1.1922
H       2.8345  1.4249  -0.4133
H       2.8844  -1.4385  0.4477
H       3.6862  -0.0550  1.1531
H       1.4769  -0.9166  2.0620
H       1.6640  0.6919  1.9328
H       -1.6053  -0.7143  -1.8121
