27

Co      0.0000  0.0000  0.0000
Cl      0.0002  -2.2574  -0.2106
Cl      -0.0001  2.2575  0.2107
N       -1.5529  0.1561  -1.4120
N       -1.5528  -0.1562  1.4119
N       1.5529  0.1560  -1.4120
N       1.5528  -0.1557  1.4120
C       -2.7927  0.4121  -0.6362
C       -2.7929  -0.4114  0.6361
C       2.7928  0.4121  -0.6363
C       2.7929  -0.4110  0.6364
H       -1.1591  0.9270  -1.9600
H       -2.8921  1.4581  -0.3968
H       -3.6615  0.1106  -1.2044
H       -3.6660  -0.1095  1.2001
H       -2.8928  -1.4574  0.3969
H       -1.3708  0.7497  1.8658
H       -1.1595  -0.9275  1.9595
H       1.3665  -0.7503  -1.8651
H       1.1593  0.9267  -1.9602
H       3.6614  0.1102  -1.2046
H       2.8922  1.4582  -0.3975
H       2.8930  -1.4571  0.3975
H       3.6614  -0.1087  1.2047
H       1.1595  -0.9268  1.9599
H       1.3660  0.7504  1.8655
H       -1.3665  -0.7501  -1.8655
