27

Co      0.0250  0.0488  0.0034
Cl      0.0002  -2.2716  -0.2176
Cl      -0.0001  2.2043  0.2109
N       -1.4491  0.1475  -1.3243
N       -1.4491  -0.1577  1.3276
N       1.4082  0.1338  -1.2241
N       1.4081  -0.1436  1.2275
C       -2.7186  0.3976  -0.6954
C       -2.7189  -0.3969  0.6920
C       2.7187  0.4021  -0.6864
C       2.7189  -0.4010  0.6831
H       -1.5076  0.8478  -2.0889
H       -2.6638  1.4668  -0.5168
H       -3.5475  0.2320  -1.3718
H       -3.5430  -0.2376  1.3731
H       -2.6644  -1.4660  0.5067
H       -1.7294  0.6207  1.9549
H       -1.4710  -0.9156  2.0178
H       1.6481  -0.7080  -1.7460
H       1.4258  0.8156  -2.0027
H       3.5019  0.2362  -1.4204
H       2.6747  1.4713  -0.5038
H       2.6755  -1.4702  0.4937
H       3.5019  -0.2413  1.4171
H       1.3889  -0.8830  1.9316
H       1.6745  0.6441  1.8339
H       -1.7073  -0.6850  -1.8671
