27

Co      0.0000  0.0427  0.0422
Cl      0.0002  -2.3531  -0.2267
Cl      -0.0001  2.2899  0.2159
N       -1.4230  0.1718  -1.3063
N       -1.3576  -0.1861  1.2728
N       1.4230  0.1717  -1.3063
N       1.3575  -0.1856  1.2728
C       -2.7731  0.3875  -0.6733
C       -2.7243  -0.3664  0.6331
C       2.7732  0.3875  -0.6734
C       2.7243  -0.3660  0.6333
H       -1.4680  0.7547  -2.2024
H       -2.7118  1.4579  -0.4961
H       -3.7134  0.1569  -1.1786
H       -3.6353  -0.1993  1.2004
H       -2.6347  -1.4326  0.4165
H       -1.4440  0.7123  1.7164
H       -1.3946  -0.8594  2.0699
H       1.4873  -0.8035  -1.6281
H       1.4682  0.7544  -2.1982
H       3.7134  0.1609  -1.1787
H       2.7119  1.4579  -0.4967
H       2.6350  -1.4322  0.4171
H       3.6397  -0.2029  1.1960
H       1.3901  -0.8586  2.0658
H       1.4483  0.7130  1.7160
H       -1.4873  -0.8052  -1.6285
