27

Co      0.0000  0.0000  0.0000
Cl      0.0002  -2.2379  -0.2142
Cl      -0.0001  2.2379  0.2143
N       -1.3755  0.1728  -1.2730
N       -1.4540  -0.1729  1.3465
N       1.4540  0.1727  -1.3465
N       1.3754  -0.1724  1.2729
C       -2.7210  0.3762  -0.6253
C       -2.7703  -0.3902  0.6449
C       2.7702  0.3909  -0.6450
C       2.7212  -0.3751  0.6255
H       -1.3359  0.8332  -2.0524
H       -2.7083  1.4309  -0.3770
H       -3.5485  0.1873  -1.2905
H       -3.6368  -0.1764  1.2514
H       -2.7581  -1.4449  0.4113
H       -1.3837  0.8036  1.6771
H       -1.4345  -0.8141  2.1551
H       1.3839  -0.8042  -1.6763
H       1.4343  0.8133  -2.1513
H       3.6368  0.1816  -1.2514
H       2.7575  1.4456  -0.4120
H       2.7093  -1.4298  0.3776
H       3.5484  -0.1898  1.2908
H       1.3318  -0.8330  2.0479
H       1.2852  0.7896  1.6325
H       -1.2858  -0.7892  -1.6326
