27

Co      0.0000  -0.0488  -0.0034
Cl      0.0002  -2.2610  -0.2089
Cl      -0.0001  2.3284  0.2157
N       -1.5512  0.1172  -1.3702
N       -1.4726  -0.1073  1.2931
N       1.4726  0.1172  -1.2965
N       1.5511  -0.1068  1.3668
C       -2.8750  0.4365  -0.6020
C       -2.8262  -0.4211  0.5857
C       2.8260  0.4218  -0.5825
C       2.8753  -0.4354  0.6056
H       -1.2422  0.9692  -1.8625
H       -3.0545  1.4855  -0.4285
H       -3.6876  0.0257  -1.2044
H       -3.5992  -0.0277  1.2472
H       -3.0061  -1.4701  0.4043
H       -1.6696  0.6611  1.9487
H       -1.1815  -0.9221  1.8296
H       1.6968  -0.5977  -2.0355
H       1.1442  0.9885  -1.7641
H       3.5992  0.0307  -1.2409
H       3.0084  1.4708  -0.3948
H       3.0583  -1.4844  0.4393
H       3.6875  -0.0126  1.2052
H       1.2840  -0.9016  1.9375
H       1.7676  0.6765  1.9925
H       -1.7950  -0.6122  -2.0801
