27

Co      0.0741  0.0427  0.0422
Cl      -0.0063  -2.2695  -0.2196
Cl      -0.0067  2.2063  0.2089
N       -1.4815  0.1766  -1.3542
N       -1.4160  -0.1910  1.3207
N       1.4144  0.1662  -1.3096
N       1.3489  -0.1801  1.2762
C       -2.8116  0.4201  -0.7259
C       -2.7628  -0.3990  0.6857
C       2.7561  0.4181  -0.7268
C       2.7072  -0.3965  0.6867
H       -1.4290  0.7670  -2.2032
H       -2.7233  1.4798  -0.4868
H       -3.6598  0.2938  -1.3957
H       -3.5861  -0.3362  1.4130
H       -2.6463  -1.4573  0.4072
H       -1.3229  0.7511  1.7090
H       -1.3556  -0.8717  2.0707
H       1.2730  -0.8454  -1.5851
H       1.3081  0.7642  -2.1321
H       3.5815  0.2926  -1.4214
H       2.6688  1.4806  -0.4901
H       2.5920  -1.4550  0.4106
H       3.5078  -0.3345  1.4386
H       1.2299  -0.8684  1.9997
H       1.2340  0.7550  1.6730
H       -1.3617  -0.8441  -1.6211
