27

Co      -0.0250  0.0000  0.0000
Cl      0.0002  -2.3410  -0.2176
Cl      -0.0001  2.3411  0.2177
N       -1.5541  0.1536  -1.3385
N       -1.5541  -0.1537  1.3384
N       1.5951  0.1672  -1.4385
N       1.5951  -0.1669  1.4386
C       -2.7546  0.3874  -0.6063
C       -2.7548  -0.3867  0.6062
C       2.7547  0.3828  -0.6155
C       2.7548  -0.3817  0.6156
H       -1.1663  0.9238  -1.8915
H       -2.9079  1.4362  -0.3849
H       -3.6182  0.0342  -1.1578
H       -3.6227  -0.0331  1.1535
H       -2.9086  -1.4326  0.3849
H       -1.3579  0.7512  1.7909
H       -1.1667  -0.9244  1.8910
H       1.4128  -0.7290  -1.9108
H       1.2484  0.9554  -1.9782
H       3.6637  0.0292  -1.1124
H       2.8944  1.4288  -0.3992
H       2.8952  -1.4277  0.3992
H       3.6636  -0.0277  1.1126
H       1.2486  -0.9554  1.9779
H       1.4123  0.7291  1.9112
H       -1.3536  -0.7515  -1.7906
