27

Co      0.0000  0.0000  0.0000
Cl      0.0002  -2.2894  -0.2159
Cl      -0.0001  2.2895  0.2160
N       -1.4270  0.1491  -1.3497
N       -1.4270  -0.1492  1.3496
N       1.4270  0.1490  -1.3497
N       1.4270  -0.1487  1.3497
C       -2.8075  0.4260  -0.6832
C       -2.8077  -0.4253  0.6832
C       2.8076  0.4260  -0.6833
C       2.8077  -0.4249  0.6834
H       -1.2960  0.8648  -2.0472
H       -2.7484  1.4914  -0.4969
H       -3.7058  0.2149  -1.2533
H       -3.7013  -0.2138  1.2580
H       -2.7491  -1.4935  0.4969
H       -1.6391  0.6813  1.8949
H       -1.2964  -0.8653  2.0467
H       1.6439  -0.6819  -1.8942
H       1.2962  0.8645  -2.0474
H       3.7058  0.2145  -1.2534
H       2.7485  1.4943  -0.4975
H       2.7493  -1.4932  0.4976
H       3.7057  -0.2129  1.2536
H       1.2964  -0.8645  2.0471
H       1.6434  0.6820  1.8946
H       -1.6439  -0.6816  -1.8946
