27

Co      0.0000  0.0000  0.0000
Cl      0.0002  -2.2771  -0.2195
Cl      -0.0001  2.2771  0.2196
N       -1.3382  0.1709  -1.3185
N       -1.3382  -0.1710  1.3184
N       1.3382  0.1708  -1.3184
N       1.3382  -0.1706  1.3184
C       -2.7511  0.4044  -0.6785
C       -2.7513  -0.4037  0.6785
C       2.7511  0.4043  -0.6786
C       2.7513  -0.4032  0.6787
H       -1.3509  0.7887  -2.1669
H       -2.6212  1.4698  -0.4596
H       -3.6651  0.2627  -1.2529
H       -3.6605  -0.2616  1.2576
H       -2.6218  -1.4719  0.4596
H       -1.4163  0.7739  1.6896
H       -1.3513  -0.7892  2.1664
H       1.4211  -0.7745  -1.6889
H       1.3511  0.7884  -2.1627
H       3.6651  0.2668  -1.2531
H       2.6213  1.4727  -0.4602
H       2.6221  -1.4716  0.4603
H       3.6650  -0.2652  1.2532
H       1.3468  -0.7884  2.1624
H       1.4206  0.7746  1.6893
H       -1.4211  -0.7742  -1.6893
