27

Co      0.0000  0.0488  0.0034
Cl      0.0002  -2.3623  -0.2246
Cl      -0.0001  2.2950  0.2180
N       -1.4118  0.1786  -1.3453
N       -1.4118  -0.1888  1.3486
N       1.4118  0.1785  -1.3453
N       1.4118  -0.1883  1.3487
C       -2.7438  0.3749  -0.6596
C       -2.7440  -0.3742  0.6563
C       2.7439  0.3749  -0.6598
C       2.7440  -0.3738  0.6565
H       -1.4783  0.7922  -2.2124
H       -2.6562  1.4432  -0.4661
H       -3.6982  0.1801  -1.1625
H       -3.6936  -0.1857  1.1638
H       -2.6568  -1.4425  0.4560
H       -1.5030  0.7122  1.7881
H       -1.4417  -0.8601  2.1412
H       1.4809  -0.7768  -1.6999
H       1.4785  0.7919  -2.2082
H       3.6981  0.1841  -1.1627
H       2.6563  1.4432  -0.4667
H       2.6571  -1.4421  0.4567
H       3.6981  -0.1893  1.1594
H       1.4372  -0.8593  2.1372
H       1.5073  0.7130  1.7878
H       -1.4809  -0.7766  -1.7003
