27

Co      -0.0250  0.0000  0.0000
Cl      0.0002  -2.2574  -0.2106
Cl      -0.0001  2.2575  0.2107
N       -1.5324  0.1492  -1.3620
N       -1.5324  -0.1494  1.3619
N       1.5734  0.1628  -1.4620
N       1.5733  -0.1625  1.4621
C       -2.7927  0.4144  -0.6316
C       -2.7929  -0.4137  0.6316
C       2.7928  0.4098  -0.6408
C       2.7929  -0.4087  0.6409
H       -1.1181  0.9111  -1.9167
H       -2.8989  1.4604  -0.3900
H       -3.6387  0.1129  -1.2272
H       -3.6432  -0.1118  1.2228
H       -2.8996  -1.4597  0.3900
H       -1.3412  0.7611  1.8043
H       -1.1186  -0.9116  1.9162
H       1.3961  -0.7389  -1.9243
H       1.2003  0.9426  -2.0034
H       3.6842  0.1080  -1.1818
H       2.8854  1.4559  -0.4043
H       2.8862  -1.4548  0.4043
H       3.6841  -0.1064  1.1820
H       1.2004  -0.9427  2.0031
H       1.3956  0.7390  1.9246
H       -1.3370  -0.7614  -1.8040
