27

Co      0.0000  0.0427  0.0422
Cl      0.0002  -2.3211  -0.2213
Cl      -0.0001  2.2579  0.2106
N       -1.4929  0.1756  -1.3720
N       -1.4275  -0.1899  1.3384
N       1.4929  0.1755  -1.3719
N       1.4274  -0.1894  1.3385
C       -2.7994  0.3897  -0.6600
C       -2.7506  -0.3685  0.6198
C       2.7995  0.3896  -0.6601
C       2.7506  -0.3681  0.6200
H       -1.4745  0.7973  -2.1970
H       -2.8011  1.4464  -0.4439
H       -3.6766  0.1518  -1.2463
H       -3.6030  -0.1942  1.2635
H       -2.7240  -1.4212  0.3643
H       -1.3604  0.7288  1.7620
H       -1.4011  -0.9020  2.0645
H       1.3992  -0.8199  -1.6737
H       1.4747  0.7970  -2.1928
H       3.6766  0.1558  -1.2464
H       2.8012  1.4464  -0.4445
H       2.7243  -1.4208  0.3649
H       3.6029  -0.1978  1.2637
H       1.3966  -0.9012  2.0605
H       1.3602  0.7295  1.7616
H       -1.3992  -0.8217  -1.6741
