27

Co      0.0741  0.0488  0.0034
Cl      -0.0063  -2.2678  -0.2101
Cl      -0.0067  2.2005  0.2034
N       -1.4145  0.1648  -1.3422
N       -1.4145  -0.1750  1.3454
N       1.3474  0.1506  -1.2975
N       1.3473  -0.1604  1.3009
C       -2.8052  0.4094  -0.6804
C       -2.8054  -0.4087  0.6770
C       2.7496  0.4074  -0.6812
C       2.7498  -0.4063  0.6779
H       -1.2533  0.8956  -2.0033
H       -2.8757  1.4650  -0.4956
H       -3.5886  0.1211  -1.3689
H       -3.5886  -0.1267  1.3657
H       -2.8763  -1.4671  0.4855
H       -1.4667  0.6489  1.9242
H       -1.2167  -0.9635  1.9321
H       1.3551  -0.7166  -1.7966
H       1.1323  0.8892  -1.9404
H       3.5104  0.1192  -1.3917
H       2.8203  1.4696  -0.4952
H       2.8211  -1.4685  0.4851
H       3.5103  -0.1243  1.3885
H       1.0954  -0.9566  1.8694
H       1.3815  0.6527  1.8845
H       -1.4400  -0.7132  -1.8364
