27

Co      0.0000  0.0488  0.0034
Cl      0.0002  -2.3231  -0.2193
Cl      -0.0001  2.2558  0.2126
N       -1.4328  0.1831  -1.3455
N       -1.4328  -0.1933  1.3487
N       1.4329  0.1830  -1.3454
N       1.4328  -0.1928  1.3488
C       -2.7932  0.3954  -0.7211
C       -2.7934  -0.3947  0.7177
C       2.7932  0.3954  -0.7212
C       2.7934  -0.3943  0.7179
H       -1.6024  0.8017  -2.2310
H       -2.6392  1.4618  -0.5027
H       -3.6244  0.3294  -1.4417
H       -3.6199  -0.3351  1.4430
H       -2.6398  -1.4638  0.4926
H       -1.5693  0.6854  1.8195
H       -1.5658  -0.8696  2.1599
H       1.5471  -0.7500  -1.7313
H       1.6026  0.8014  -2.2268
H       3.6244  0.3335  -1.4447
H       2.6364  1.4646  -0.5033
H       2.6373  -1.4635  0.4933
H       3.6243  -0.3386  1.4415
H       1.5613  -0.8688  2.1558
H       1.5736  0.6861  1.8192
H       -1.5472  -0.7497  -1.7317
