27

Co      -0.0741  -0.0488  -0.0034
Cl      0.0068  -2.2630  -0.2125
Cl      0.0064  2.3303  0.2194
N       -1.4612  0.1520  -1.3832
N       -1.4612  -0.1420  1.3797
N       1.5284  0.1623  -1.4277
N       1.5283  -0.1519  1.4244
C       -2.7338  0.4018  -0.6432
C       -2.7340  -0.4011  0.6466
C       2.7894  0.4037  -0.6426
C       2.7896  -0.4026  0.6461
H       -1.2477  0.9457  -1.9615
H       -2.7747  1.4565  -0.4307
H       -3.5837  0.1455  -1.2510
H       -3.5837  -0.1376  1.2545
H       -2.7754  -1.4558  0.4409
H       -1.4957  0.7282  1.8729
H       -1.2851  -0.8789  2.0317
H       1.6114  -0.6617  -1.9953
H       1.3691  0.9479  -2.0286
H       3.6619  0.1503  -1.2285
H       2.8266  1.4585  -0.4287
H       2.8274  -1.4574  0.4388
H       3.6619  -0.1420  1.2320
H       1.4062  -0.8806  2.0989
H       1.5840  0.7258  1.9082
H       -1.5229  -0.6646  -1.9601
