27

Co      0.0741  0.0000  0.0000
Cl      -0.0063  -2.3249  -0.2138
Cl      -0.0067  2.3249  0.2139
N       -1.3932  0.1802  -1.3811
N       -1.3932  -0.1803  1.3810
N       1.3261  0.1660  -1.3365
N       1.3261  -0.1657  1.3365
C       -2.8164  0.3613  -0.6876
C       -2.8166  -0.3606  0.6875
C       2.7609  0.3593  -0.6884
C       2.7610  -0.3582  0.6885
H       -1.5415  0.9631  -2.0739
H       -2.7141  1.4257  -0.4992
H       -3.6533  0.2231  -1.3708
H       -3.6488  -0.2220  1.3755
H       -2.7148  -1.4278  0.4992
H       -1.5556  0.6175  1.9962
H       -1.5419  -0.9637  2.0734
H       1.4755  -0.6213  -1.9561
H       1.4205  0.9567  -2.0110
H       3.5751  0.2212  -1.3936
H       2.6588  1.4303  -0.4987
H       2.6596  -1.4292  0.4988
H       3.5750  -0.2197  1.3937
H       1.4206  -0.9567  2.0106
H       1.4750  0.6214  1.9565
H       -1.5604  -0.6179  -1.9959
