27

Co      0.0000  0.0000  0.0000
Cl      0.0002  -2.3376  -0.2251
Cl      -0.0001  2.3376  0.2252
N       -1.5668  0.0949  -1.3050
N       -1.5668  -0.0950  1.3049
N       1.5668  0.0986  -1.3049
N       1.5668  -0.0983  1.3049
C       -2.7516  0.4349  -0.6053
C       -2.7518  -0.4342  0.6053
C       2.7517  0.4349  -0.6054
C       2.7518  -0.4338  0.6055
H       -1.1083  0.8761  -1.8383
H       -2.8422  1.4935  -0.4076
H       -3.6901  0.0954  -1.0651
H       -3.6901  -0.0943  1.0652
H       -2.8428  -1.4900  0.4077
H       -1.6937  0.7081  1.8964
H       -1.1087  -0.8767  1.8378
H       1.6902  -0.7087  -1.8994
H       1.1085  0.8796  -1.8392
H       3.6901  0.0869  -1.0652
H       2.8460  1.4870  -0.4120
H       2.8469  -1.4859  0.4121
H       3.6900  -0.0853  1.0654
H       1.1130  -0.8796  1.8389
H       1.6897  0.7088  1.8998
H       -1.6940  -0.7084  -1.8961
