27

Co      0.0250  -0.0061  0.0389
Cl      0.0002  -2.2750  -0.2216
Cl      -0.0001  2.2792  0.2176
N       -1.3652  0.1404  -1.3413
N       -1.3783  -0.1446  1.3780
N       1.4028  0.1267  -1.3147
N       1.2588  -0.1305  1.2043
C       -2.7425  0.4307  -0.6916
C       -2.7428  -0.4243  0.6744
C       2.7917  0.4499  -0.7022
C       2.6937  -0.4136  0.6458
H       -1.2216  0.8408  -2.0479
H       -2.6838  1.4982  -0.5096
H       -3.6420  0.2133  -1.2525
H       -3.6522  -0.2392  1.2383
H       -2.6558  -1.4905  0.4745
H       -1.6097  0.6895  1.9188
H       -1.2834  -0.8585  2.0891
H       1.6207  -0.7394  -1.7974
H       1.2381  0.7890  -2.0647
H       3.6848  0.2077  -1.2588
H       2.7466  1.5203  -0.5309
H       2.6207  -1.4799  0.4271
H       3.5228  -0.2527  1.3187
H       1.1032  -0.8455  1.8999
H       1.4566  0.6982  1.7536
H       -1.5817  -0.7037  -1.8743
