27

Co      0.0000  -0.0061  0.0389
Cl      0.0002  -2.3266  -0.2233
Cl      -0.0001  2.3307  0.2193
N       -1.3952  0.1743  -1.3591
N       -1.4083  -0.1785  1.3958
N       1.4738  0.1742  -1.4326
N       1.3297  -0.1780  1.3222
C       -2.7759  0.4077  -0.6738
C       -2.7761  -0.4012  0.6566
C       2.8250  0.4224  -0.6936
C       2.7270  -0.3861  0.6372
H       -1.3185  0.8241  -2.1324
H       -2.7281  1.4616  -0.4283
H       -3.6144  0.2358  -1.3367
H       -3.6292  -0.2617  1.3180
H       -2.7002  -1.4539  0.3932
H       -1.3376  0.7819  1.7523
H       -1.3803  -0.8419  2.1736
H       1.4033  -0.8091  -1.7516
H       1.4169  0.8042  -2.2313
H       3.7028  0.2300  -1.2976
H       2.7773  1.4792  -0.4633
H       2.6514  -1.4388  0.3594
H       3.5407  -0.2751  1.3575
H       1.2776  -0.8607  2.0665
H       1.2392  0.7679  1.7078
H       -1.3051  -0.7962  -1.7078
