27

Co      0.0000  0.0488  0.0034
Cl      0.0002  -2.3551  -0.2246
Cl      -0.0001  2.2879  0.2180
N       -1.4034  0.1385  -1.2791
N       -1.4033  -0.1487  1.2823
N       1.4034  0.1384  -1.2790
N       1.4033  -0.1482  1.2824
C       -2.7400  0.4030  -0.6548
C       -2.7403  -0.4023  0.6514
C       2.7401  0.4030  -0.6549
C       2.7403  -0.4019  0.6516
H       -1.3101  0.8179  -2.0303
H       -2.7280  1.4713  -0.4869
H       -3.6382  0.1417  -1.2017
H       -3.6336  -0.1473  1.2030
H       -2.7287  -1.4706  0.4768
H       -1.6242  0.6605  1.8620
H       -1.2735  -0.8858  1.9591
H       1.6020  -0.7251  -1.7738
H       1.3103  0.8176  -2.0305
H       3.6381  0.1413  -1.2018
H       2.7281  1.4713  -0.4876
H       2.7290  -1.4702  0.4775
H       3.6381  -0.1464  1.1986
H       1.2734  -0.8850  1.9595
H       1.6284  0.6612  1.8617
H       -1.6020  -0.7249  -1.7742
