27

Co      0.0000  0.0000  0.0000
Cl      0.0002  -2.2894  -0.2159
Cl      -0.0001  2.2895  0.2160
N       -1.4320  0.1799  -1.3721
N       -1.4320  -0.1800  1.3720
N       1.4320  0.1798  -1.3721
N       1.4320  -0.1795  1.3721
C       -2.8115  0.4048  -0.6652
C       -2.8117  -0.4041  0.6652
C       2.8116  0.4048  -0.6653
C       2.8117  -0.4037  0.6654
H       -1.3813  0.8381  -2.1479
H       -2.7566  1.4567  -0.4125
H       -3.6539  0.2440  -1.3309
H       -3.6538  -0.2429  1.3310
H       -2.7572  -1.4588  0.4125
H       -1.3515  0.7835  1.7266
H       -1.3817  -0.8386  2.1474
H       1.3518  -0.7841  -1.7259
H       1.3815  0.8378  -2.1437
H       3.6538  0.2480  -1.3310
H       2.7567  1.4595  -0.4131
H       2.7575  -1.4584  0.4132
H       3.6538  -0.2464  1.3312
H       1.3772  -0.8378  2.1434
H       1.3513  0.7842  1.7263
H       -1.3518  -0.7839  -1.7263
