27

Co      0.0741  0.0488  0.0034
Cl      -0.0063  -2.2750  -0.2101
Cl      -0.0067  2.2077  0.2034
N       -1.3967  0.1696  -1.3628
N       -1.4753  -0.1798  1.4397
N       1.4082  0.1554  -1.3918
N       1.3296  -0.1652  1.3215
C       -2.7758  0.3996  -0.6754
C       -2.8252  -0.4136  0.6916
C       2.7694  0.4123  -0.6958
C       2.7205  -0.3965  0.6729
H       -1.2329  0.9246  -1.9924
H       -2.8344  1.4553  -0.4832
H       -3.5660  0.1308  -1.3622
H       -3.6543  -0.1266  1.3197
H       -2.8841  -1.4721  0.5075
H       -1.5421  0.6419  2.0181
H       -1.2945  -0.9728  2.0243
H       1.4305  -0.7096  -1.8905
H       1.2101  0.8985  -2.0326
H       3.5761  0.1190  -1.3457
H       2.8281  1.4746  -0.5171
H       2.7798  -1.4588  0.4727
H       3.4877  -0.1340  1.3818
H       1.0750  -0.9855  1.8585
H       1.3588  0.6310  1.9342
H       -1.4172  -0.6915  -1.8861
