27

Co      0.0490  0.0000  0.0000
Cl      -0.0063  -2.2823  -0.2159
Cl      -0.0067  2.2823  0.2160
N       -1.4608  0.1777  -1.2755
N       -1.4608  -0.1778  1.2754
N       1.4347  0.1809  -1.3310
N       1.4346  -0.1806  1.3310
C       -2.8082  0.4450  -0.7056
C       -2.8085  -0.4443  0.7056
C       2.7527  0.4385  -0.7155
C       2.7529  -0.4374  0.7156
H       -1.2886  0.7883  -2.0716
H       -2.8368  1.5026  -0.4842
H       -3.5696  0.2307  -1.4546
H       -3.5696  -0.2296  1.4547
H       -2.8374  -1.5047  0.4842
H       -1.4566  0.7890  1.6125
H       -1.2891  -0.7889  2.0711
H       1.4275  -0.7700  -1.6968
H       1.2496  0.8175  -2.0870
H       3.5369  0.2249  -1.4347
H       2.7686  1.4989  -0.5012
H       2.7695  -1.4978  0.5012
H       3.5368  -0.2234  1.4348
H       1.2453  -0.8175  2.0867
H       1.4269  0.7701  1.6972
H       -1.4569  -0.7893  -1.6122
