27

Co      -0.0250  -0.0427  -0.0422
Cl      0.0002  -2.2616  -0.2180
Cl      -0.0001  2.3249  0.2289
N       -1.4485  0.1225  -1.2759
N       -1.5139  -0.1085  1.3092
N       1.4895  0.1399  -1.3759
N       1.5549  -0.1254  1.4094
C       -2.7381  0.4283  -0.6061
C       -2.7874  -0.4480  0.6462
C       2.7382  0.4237  -0.6153
C       2.7874  -0.4431  0.6556
H       -1.0897  0.8494  -1.9010
H       -2.7033  1.4821  -0.3387
H       -3.6575  0.2372  -1.1493
H       -3.7311  -0.1925  1.1324
H       -2.7817  -1.5059  0.4184
H       -1.4890  0.8471  1.6625
H       -1.1640  -0.7458  2.0326
H       1.5062  -0.7344  -1.8737
H       1.1718  0.8847  -1.9840
H       3.7030  0.2285  -1.1039
H       2.6935  1.4738  -0.3568
H       2.7721  -1.4972  0.4364
H       3.7765  -0.1834  1.0870
H       1.2458  -0.7806  2.1157
H       1.5442  0.8251  1.7866
H       -1.4508  -0.7549  -1.7497
