27

Co      0.0741  0.0000  0.0000
Cl      -0.0063  -2.2823  -0.2159
Cl      -0.0067  2.2823  0.2160
N       -1.4390  0.1495  -1.3146
N       -1.4390  -0.1496  1.3145
N       1.3719  0.1390  -1.2700
N       1.3719  -0.1387  1.2700
C       -2.8401  0.4294  -0.6781
C       -2.8403  -0.4287  0.6780
C       2.7846  0.4274  -0.6789
C       2.7847  -0.4263  0.6790
H       -1.3279  0.8469  -2.0399
H       -2.7910  1.4948  -0.4908
H       -3.7234  0.2127  -1.2683
H       -3.7189  -0.2116  1.2730
H       -2.7917  -1.4969  0.4908
H       -1.6571  0.6940  1.8421
H       -1.3283  -0.8474  2.0395
H       1.5733  -0.6978  -1.8057
H       1.2069  0.8441  -1.9733
H       3.6452  0.2071  -1.2911
H       2.7394  1.4957  -0.4941
H       2.7402  -1.4946  0.4941
H       3.6451  -0.2055  1.2912
H       1.2071  -0.8442  1.9730
H       1.5728  0.6979  1.8061
H       -1.6619  -0.6944  -1.8418
