27

Co      -0.0741  0.0061  -0.0389
Cl      0.0068  -2.2523  -0.2085
Cl      0.0064  2.2483  0.2127
N       -1.4862  0.1526  -1.3372
N       -1.4731  -0.1487  1.3002
N       1.4748  0.1630  -1.3081
N       1.6188  -0.1586  1.4185
C       -2.7742  0.4062  -0.6412
C       -2.7744  -0.4112  0.6584
C       2.7808  0.3934  -0.6210
C       2.8791  -0.4275  0.6775
H       -1.1548  0.8971  -1.9474
H       -2.8054  1.4637  -0.4346
H       -3.6986  0.1212  -1.1422
H       -3.6839  -0.0931  1.1612
H       -2.8346  -1.4728  0.4698
H       -1.4240  0.7364  1.7756
H       -1.0938  -0.8805  1.9052
H       1.4474  -0.7073  -1.8105
H       1.1779  0.9189  -1.9114
H       3.6885  0.1359  -1.1590
H       2.8081  1.4510  -0.3982
H       2.9357  -1.4891  0.5021
H       3.8504  -0.0877  1.0994
H       1.3131  -0.8625  2.0755
H       1.6105  0.7487  1.8551
H       -1.4570  -0.7229  -1.8194
