27

Co      0.0000  -0.0488  -0.0034
Cl      0.0002  -2.3073  -0.2142
Cl      -0.0001  2.3747  0.2211
N       -1.5746  0.1655  -1.3902
N       -1.5746  -0.1555  1.3867
N       1.5747  0.1654  -1.3901
N       1.5746  -0.1550  1.3868
C       -2.7546  0.3851  -0.6091
C       -2.7548  -0.3844  0.6125
C       2.7547  0.3851  -0.6093
C       2.7548  -0.3840  0.6127
H       -1.1887  0.9734  -1.8994
H       -2.9011  1.4339  -0.3867
H       -3.6409  0.0353  -1.1334
H       -3.6454  -0.0274  1.1324
H       -2.9017  -1.4304  0.3968
H       -1.3740  0.7718  1.8086
H       -1.2262  -0.9066  1.9696
H       1.3966  -0.7084  -1.8954
H       1.1889  0.9731  -1.8996
H       3.6409  0.0349  -1.1335
H       2.9012  1.4311  -0.3873
H       2.9020  -1.4300  0.3975
H       3.6408  -0.0266  1.1370
H       1.2261  -0.9058  1.9700
H       1.3692  0.7725  1.8083
H       -1.3967  -0.7082  -1.8958
