27

Co      0.0490  0.0000  0.0000
Cl      -0.0063  -2.2413  -0.2067
Cl      -0.0067  2.2414  0.2068
N       -1.4306  0.2059  -1.3432
N       -1.4306  -0.2060  1.3431
N       1.4045  0.2054  -1.3987
N       1.4044  -0.2051  1.3987
C       -2.7723  0.3582  -0.6537
C       -2.7725  -0.3575  0.6537
C       2.7168  0.3516  -0.6636
C       2.7169  -0.3505  0.6637
H       -1.4183  0.8990  -2.0899
H       -2.8163  1.4167  -0.4545
H       -3.6118  0.0947  -1.2748
H       -3.6118  -0.0936  1.2749
H       -2.8169  -1.4159  0.4545
H       -1.3307  0.7355  1.7367
H       -1.4188  -0.8995  2.0894
H       1.3052  -0.7165  -1.8172
H       1.3793  0.9244  -2.1091
H       3.5791  0.0927  -1.2520
H       2.7472  1.4139  -0.4677
H       2.7481  -1.4128  0.4677
H       3.5790  -0.0911  1.2522
H       1.3750  -0.9244  2.1087
H       1.3047  0.7166  1.8176
H       -1.3309  -0.7359  -1.7364
