27

Co      0.0000  -0.0488  -0.0034
Cl      0.0002  -2.2166  -0.2072
Cl      -0.0001  2.2840  0.2140
N       -1.5132  0.1608  -1.3427
N       -1.5132  -0.1509  1.3393
N       1.5133  0.1608  -1.3427
N       1.5132  -0.1504  1.3393
C       -2.8020  0.4100  -0.6478
C       -2.8022  -0.4093  0.6511
C       2.8021  0.4100  -0.6479
C       2.8022  -0.4089  0.6514
H       -1.1661  0.9234  -1.9246
H       -2.8455  1.4696  -0.4458
H       -3.7304  0.1137  -1.1386
H       -3.7303  -0.1059  1.1421
H       -2.8462  -1.4688  0.4559
H       -1.4712  0.7599  1.7729
H       -1.2036  -0.8567  1.9949
H       1.4984  -0.6965  -1.8597
H       1.1663  0.9231  -1.9249
H       3.7303  0.1133  -1.1388
H       2.8457  1.4696  -0.4464
H       2.8465  -1.4685  0.4566
H       3.7303  -0.1050  1.1423
H       1.2035  -0.8559  1.9952
H       1.4709  0.7606  1.7725
H       -1.4984  -0.6963  -1.8601
