27

Co      0.0490  0.0000  0.0000
Cl      -0.0063  -2.2771  -0.2195
Cl      -0.0067  2.2771  0.2196
N       -1.3902  0.1360  -1.2302
N       -1.4688  -0.1361  1.3038
N       1.4427  0.1392  -1.3594
N       1.3641  -0.1389  1.2858
C       -2.6817  0.4003  -0.6563
C       -2.7311  -0.4143  0.6759
C       2.6753  0.4085  -0.6859
C       2.6264  -0.3926  0.6663
H       -1.3323  0.8733  -1.9136
H       -2.6993  1.4559  -0.4190
H       -3.3744  0.2483  -1.5109
H       -3.4627  -0.2374  1.4717
H       -2.7490  -1.4699  0.4534
H       -1.5797  0.7227  1.8102
H       -1.4309  -0.8543  2.0163
H       1.5505  -0.7037  -1.8945
H       1.3914  0.8828  -2.0366
H       3.4301  0.2283  -1.4517
H       2.6802  1.4641  -0.4703
H       2.6320  -1.4483  0.4360
H       3.3416  -0.2365  1.4911
H       1.2934  -0.9025  1.9332
H       1.4518  0.6891  1.8507
H       -1.4818  -0.7083  -1.7657
