27

Co      -0.0490  0.0000  0.0000
Cl      0.0068  -2.3056  -0.2198
Cl      0.0064  2.3056  0.2199
N       -1.5639  0.1316  -1.4051
N       -1.5639  -0.1317  1.4050
N       1.5901  0.1320  -1.3495
N       1.5900  -0.1317  1.3495
C       -2.7861  0.4035  -0.5693
C       -2.7863  -0.4028  0.5693
C       2.8417  0.4100  -0.5596
C       2.8419  -0.4089  0.5597
H       -1.2861  0.8648  -2.0420
H       -2.8490  1.4564  -0.3510
H       -3.7887  0.0635  -0.9494
H       -3.7887  -0.0624  0.9495
H       -2.8497  -1.4529  0.3510
H       -1.5967  0.7504  1.8786
H       -1.2865  -0.8654  2.0416
H       1.6227  -0.7706  -1.7967
H       1.3255  0.8388  -2.0189
H       3.8214  0.0692  -0.9695
H       2.9211  1.4564  -0.3390
H       2.9220  -1.4553  0.3391
H       3.8213  -0.0676  0.9697
H       1.3257  -0.8389  2.0186
H       1.6222  0.7707  1.7970
H       -1.5970  -0.7507  -1.8783
