27

Co      -0.0490  -0.0488  -0.0034
Cl      0.0068  -2.2238  -0.2072
Cl      0.0064  2.2912  0.2140
N       -1.5498  0.1701  -1.4110
N       -1.5498  -0.1601  1.4076
N       1.5760  0.1667  -1.3554
N       1.5760  -0.1563  1.3520
C       -2.7328  0.3790  -0.6321
C       -2.7330  -0.3783  0.6355
C       2.7885  0.3855  -0.6224
C       2.7886  -0.3844  0.6259
H       -1.2316  0.9686  -1.9582
H       -2.8017  1.4414  -0.4503
H       -3.7215  0.0432  -1.0248
H       -3.7215  -0.0354  1.0283
H       -2.8024  -1.4378  0.4604
H       -1.5110  0.7273  1.8787
H       -1.2690  -0.9018  2.0284
H       1.5676  -0.6835  -1.8805
H       1.2710  0.9388  -1.9388
H       3.7541  0.0526  -1.0479
H       2.8672  1.4451  -0.4346
H       2.8681  -1.4440  0.4447
H       3.7541  -0.0443  1.0514
H       1.3082  -0.8716  2.0092
H       1.5401  0.7476  1.7934
H       -1.5381  -0.6637  -1.9659
