27

Co      0.0250  -0.0061  0.0389
Cl      0.0002  -2.2750  -0.2216
Cl      -0.0001  2.2792  0.2176
N       -1.3934  0.1432  -1.3244
N       -1.4065  -0.1474  1.3611
N       1.4310  0.1295  -1.2978
N       1.2869  -0.1333  1.1874
C       -2.7059  0.4053  -0.6662
C       -2.7061  -0.3989  0.6490
C       2.7551  0.4246  -0.6769
C       2.6570  -0.3883  0.6205
H       -1.2779  0.8521  -2.0310
H       -2.6894  1.4756  -0.5012
H       -3.6279  0.1429  -1.1764
H       -3.6381  -0.1688  1.1623
H       -2.6615  -1.4651  0.4660
H       -1.6379  0.6810  1.9103
H       -1.3398  -0.8698  2.0723
H       1.6489  -0.7310  -1.7890
H       1.2944  0.8003  -2.0478
H       3.6707  0.1373  -1.1828
H       2.7523  1.4949  -0.5225
H       2.6263  -1.4546  0.4186
H       3.5087  -0.1823  1.2427
H       1.1595  -0.8568  1.8830
H       1.4848  0.6898  1.7452
H       -1.6099  -0.6953  -1.8658
