27

Co      0.0250  0.0427  0.0422
Cl      0.0002  -2.3139  -0.2213
Cl      -0.0001  2.2507  0.2106
N       -1.4656  0.1423  -1.3190
N       -1.4788  -0.1566  1.3591
N       1.5032  0.1286  -1.2924
N       1.3592  -0.1425  1.1853
C       -2.7711  0.4081  -0.6498
C       -2.7714  -0.4017  0.6292
C       2.8203  0.4274  -0.6605
C       2.7223  -0.3911  0.6007
H       -1.2982  0.8487  -2.0066
H       -2.8416  1.4649  -0.4543
H       -3.5952  0.1160  -1.2823
H       -3.6099  -0.1486  1.2603
H       -2.8136  -1.4544  0.4091
H       -1.5602  0.6730  1.9194
H       -1.3229  -0.9337  1.9772
H       1.5398  -0.7870  -1.7105
H       1.3146  0.7969  -2.0235
H       3.6380  0.1104  -1.2887
H       2.9044  1.4842  -0.4757
H       2.7785  -1.4438  0.3617
H       3.4759  -0.1622  1.3452
H       1.1427  -0.9207  1.7880
H       1.4026  0.6818  1.7542
H       -1.5008  -0.7512  -1.7874
