27

Co      0.0000  -0.0488  -0.0034
Cl      0.0002  -2.3073  -0.2142
Cl      -0.0001  2.3747  0.2211
N       -1.4945  0.1228  -1.3961
N       -1.4945  -0.1128  1.3927
N       1.4945  0.1227  -1.3961
N       1.4945  -0.1123  1.3927
C       -2.8230  0.3922  -0.5927
C       -2.8233  -0.3915  0.5960
C       2.8231  0.3922  -0.5928
C       2.8233  -0.3911  0.5962
H       -1.2762  1.0144  -1.8656
H       -2.8711  1.4412  -0.3755
H       -3.6890  0.1142  -1.1769
H       -3.6890  -0.1064  1.1804
H       -2.8717  -1.4405  0.3856
H       -1.5895  0.6724  2.0288
H       -1.3137  -0.9476  1.9358
H       1.6166  -0.6090  -2.1156
H       1.2764  1.0141  -1.8703
H       3.6890  0.1094  -1.1741
H       2.8740  1.4412  -0.3761
H       2.8749  -1.4401  0.3862
H       3.6890  -0.1011  1.1777
H       1.3180  -0.9469  1.9406
H       1.5892  0.6731  2.0285
H       -1.6167  -0.6088  -2.1160
