27

Co      0.0000  -0.0488  -0.0034
Cl      0.0002  -2.3002  -0.2142
Cl      -0.0001  2.3676  0.2211
N       -1.5102  0.1223  -1.3273
N       -1.5102  -0.1123  1.3238
N       1.5102  0.1222  -1.3272
N       1.5102  -0.1118  1.3239
C       -2.7920  0.4292  -0.6380
C       -2.7922  -0.4285  0.6413
C       2.7920  0.4291  -0.6381
C       2.7922  -0.4280  0.6415
H       -1.1639  0.9794  -1.7992
H       -2.9186  1.4839  -0.4553
H       -3.5885  0.0960  -1.2891
H       -3.5884  -0.0882  1.2926
H       -2.9192  -1.4832  0.4655
H       -1.6799  0.6681  1.9572
H       -1.2014  -0.9126  1.8694
H       1.7070  -0.6047  -2.0440
H       1.1641  0.9791  -1.8038
H       3.5884  0.0912  -1.2892
H       2.9187  1.4839  -0.4560
H       2.9195  -1.4828  0.4661
H       3.5884  -0.0829  1.2928
H       1.2057  -0.9118  1.8742
H       1.6796  0.6688  1.9568
H       -1.7071  -0.6045  -2.0444
