27

Co      0.0000  -0.0488  -0.0034
Cl      0.0002  -2.2238  -0.2072
Cl      -0.0001  2.2912  0.2140
N       -1.5529  0.1611  -1.4137
N       -1.5528  -0.1511  1.4103
N       1.5529  0.1610  -1.4137
N       1.5528  -0.1506  1.4103
C       -2.7927  0.4121  -0.6345
C       -2.7929  -0.4114  0.6378
C       2.7928  0.4121  -0.6346
C       2.7929  -0.4110  0.6381
H       -1.1406  0.9607  -1.9246
H       -2.8921  1.4581  -0.3918
H       -3.6615  0.1140  -1.2027
H       -3.6660  -0.1062  1.2017
H       -2.8928  -1.4574  0.4019
H       -1.3573  0.7817  1.8220
H       -1.1781  -0.8939  1.9948
H       1.3800  -0.7183  -1.9088
H       1.1408  0.9604  -1.9248
H       3.6614  0.1136  -1.2029
H       2.8922  1.4582  -0.3924
H       2.8930  -1.4571  0.4026
H       3.6614  -0.1053  1.2064
H       1.1780  -0.8931  1.9952
H       1.3525  0.7824  1.8217
H       -1.3800  -0.7181  -1.9092
