27

Co      0.0741  0.0000  0.0000
Cl      -0.0063  -2.2894  -0.2159
Cl      -0.0067  2.2895  0.2160
N       -1.4790  0.1523  -1.3551
N       -1.4790  -0.1524  1.3550
N       1.4119  0.1418  -1.3105
N       1.4119  -0.1415  1.3105
C       -2.7987  0.3968  -0.6478
C       -2.7989  -0.3961  0.6478
C       2.7432  0.3948  -0.6486
C       2.7433  -0.3937  0.6487
H       -1.5584  0.8870  -2.0880
H       -2.7945  1.4602  -0.4677
H       -3.6339  0.1713  -1.2969
H       -3.6293  -0.1702  1.3015
H       -2.7951  -1.4595  0.4677
H       -1.7843  0.6470  1.9490
H       -1.5588  -0.8875  2.0875
H       1.7005  -0.6508  -1.9127
H       1.4374  0.8842  -2.0213
H       3.5556  0.1657  -1.3197
H       2.7428  1.4582  -0.4710
H       2.7437  -1.4571  0.4711
H       3.5556  -0.1641  1.3198
H       1.4376  -0.8843  2.0210
H       1.7000  0.6509  1.9131
H       -1.7891  -0.6474  -1.9487
