27

Co      0.0490  0.0000  0.0000
Cl      -0.0063  -2.2857  -0.2084
Cl      -0.0067  2.2858  0.2085
N       -1.4102  0.1802  -1.2720
N       -1.4888  -0.1804  1.3455
N       1.4626  0.1797  -1.4011
N       1.3840  -0.1794  1.3275
C       -2.7779  0.3703  -0.6619
C       -2.8272  -0.3843  0.6815
C       2.7715  0.3785  -0.6914
C       2.7225  -0.3626  0.6719
H       -1.3079  0.9423  -1.9240
H       -2.8296  1.4423  -0.5268
H       -3.6452  0.0569  -1.2271
H       -3.7290  -0.0459  1.1925
H       -2.8794  -1.4563  0.5612
H       -1.6861  0.6338  1.9185
H       -1.4065  -0.9232  2.0266
H       1.6652  -0.6148  -1.9990
H       1.3670  0.9481  -2.0506
H       3.7008  0.0406  -1.1650
H       2.8097  1.4543  -0.5744
H       2.7614  -1.4385  0.5400
H       3.6124  -0.0488  1.2045
H       1.2690  -0.9678  1.9472
H       1.5665  0.6002  1.9552
H       -1.5927  -0.6194  -1.8740
