27

Co      -0.0490  -0.0427  -0.0422
Cl      0.0068  -2.2616  -0.2180
Cl      0.0064  2.3249  0.2289
N       -1.5011  0.1201  -1.3504
N       -1.5665  -0.1060  1.3837
N       1.5273  0.1205  -1.2947
N       1.5926  -0.1060  1.3282
C       -2.6562  0.4316  -0.5667
C       -2.7055  -0.4514  0.6069
C       2.7118  0.4382  -0.5571
C       2.7611  -0.4575  0.5973
H       -1.1722  0.8975  -1.9121
H       -2.8467  1.4698  -0.3060
H       -3.4062  0.1058  -1.2777
H       -3.4843  -0.0612  1.2563
H       -2.9250  -1.4908  0.3856
H       -1.5899  0.8164  1.7963
H       -1.2464  -0.7939  2.0437
H       1.5728  -0.7461  -1.8019
H       1.2116  0.8715  -1.8890
H       3.4389  0.1115  -1.3008
H       2.9159  1.4698  -0.2940
H       2.9944  -1.4932  0.3737
H       3.5124  -0.0664  1.2838
H       1.2856  -0.7674  2.0207
H       1.6108  0.8368  1.7148
H       -1.5472  -0.7242  -1.8836
