27

Co      -0.0741  -0.0488  -0.0034
Cl      0.0068  -2.3039  -0.2217
Cl      0.0064  2.3713  0.2286
N       -1.5004  0.1179  -1.3237
N       -1.5004  -0.1079  1.3202
N       1.5676  0.1319  -1.3682
N       1.5675  -0.1215  1.3648
C       -2.7645  0.4332  -0.6016
C       -2.7647  -0.4325  0.6050
C       2.8201  0.4352  -0.6010
C       2.8203  -0.4341  0.6045
H       -1.2036  0.8803  -1.9114
H       -2.8334  1.4706  -0.3086
H       -3.5161  0.2199  -1.3593
H       -3.5206  -0.2121  1.3583
H       -2.8341  -1.4699  0.3187
H       -1.3929  0.8281  1.7175
H       -1.2411  -0.8135  1.9816
H       1.5004  -0.7616  -1.8437
H       1.3250  0.8862  -1.9748
H       3.5943  0.2210  -1.3368
H       2.8890  1.4689  -0.3103
H       2.8898  -1.4678  0.3204
H       3.5943  -0.2127  1.3403
H       1.3622  -0.8189  2.0451
H       1.4730  0.8257  1.7566
H       -1.4156  -0.7645  -1.8047
