27

Co      -0.0741  -0.0427  -0.0422
Cl      0.0068  -2.2739  -0.2144
Cl      0.0064  2.3372  0.2253
N       -1.5407  0.1328  -1.3806
N       -1.5276  -0.1187  1.3403
N       1.5293  0.1468  -1.3515
N       1.6732  -0.1324  1.4585
C       -2.7998  0.4234  -0.6159
C       -2.8000  -0.4285  0.6364
C       2.8064  0.4107  -0.5957
C       2.9047  -0.4447  0.6556
H       -1.3493  0.8953  -2.0083
H       -2.7818  1.4724  -0.3564
H       -3.6675  0.2374  -1.2367
H       -3.6527  -0.2026  1.2590
H       -2.8111  -1.4814  0.4016
H       -1.5733  0.7792  1.7862
H       -1.3254  -0.8113  2.0368
H       1.6199  -0.6861  -1.9124
H       1.3725  0.9208  -1.9686
H       3.6573  0.2483  -1.2534
H       2.7883  1.4559  -0.3237
H       2.9159  -1.4941  0.4377
H       3.8193  -0.1934  1.1972
H       1.5447  -0.7971  2.2034
H       1.7561  0.7915  1.8695
H       -1.6333  -0.7017  -1.9176
