27

Co      -0.0741  0.0061  -0.0389
Cl      0.0068  -2.2967  -0.2102
Cl      0.0064  2.2927  0.2144
N       -1.5650  0.1517  -1.3219
N       -1.5519  -0.1478  1.2850
N       1.5536  0.1621  -1.2928
N       1.6975  -0.1577  1.4032
C       -2.7543  0.4182  -0.6021
C       -2.7545  -0.4232  0.6193
C       2.7608  0.4054  -0.5819
C       2.8591  -0.4395  0.6384
H       -1.0943  0.9117  -1.8675
H       -3.0198  1.4650  -0.4114
H       -3.5636  -0.0408  -1.1841
H       -3.5533  0.0689  1.1986
H       -3.0490  -1.4712  0.4466
H       -1.4561  0.7443  1.7533
H       -1.0334  -0.8951  1.8253
H       1.4749  -0.7152  -1.7882
H       1.1175  0.9335  -1.8316
H       3.5534  -0.0261  -1.2009
H       3.0225  1.4494  -0.3750
H       3.1502  -1.4876  0.4789
H       3.7153  0.0743  1.1413
H       1.2526  -0.8771  1.9957
H       1.6381  0.7566  1.8328
H       -1.4845  -0.7308  -1.7971
