27

Co      -0.0490  0.0000  0.0000
Cl      0.0068  -2.3338  -0.2176
Cl      0.0064  2.3339  0.2177
N       -1.4599  0.1146  -1.3648
N       -1.4599  -0.1147  1.3647
N       1.4861  0.1112  -1.3092
N       1.4860  -0.1109  1.3092
C       -2.8000  0.3913  -0.5945
C       -2.8003  -0.3906  0.5945
C       2.8557  0.3978  -0.5848
C       2.8558  -0.3967  0.5849
H       -1.2464  0.9763  -1.8701
H       -2.8551  1.4403  -0.3839
H       -3.6512  0.1012  -1.1934
H       -3.6511  -0.1001  1.1936
H       -2.8558  -1.4396  0.3839
H       -1.5619  0.6450  2.0433
H       -1.2468  -0.9769  1.8696
H       1.5916  -0.6652  -1.9576
H       1.2858  0.9466  -1.8552
H       3.6838  0.1062  -1.2136
H       2.9235  1.4469  -0.3682
H       2.9243  -1.4458  0.3682
H       3.6838  -0.1046  1.2137
H       1.2904  -0.9467  1.8548
H       1.5911  0.6653  1.9580
H       -1.5622  -0.6453  -2.0430
