27

Co      0.0741  -0.0061  0.0389
Cl      -0.0063  -2.3228  -0.2158
Cl      -0.0067  2.3270  0.2118
N       -1.4235  0.1766  -1.3458
N       -1.4366  -0.1808  1.3825
N       1.4349  0.1624  -1.3748
N       1.2909  -0.1662  1.2644
C       -2.7668  0.3734  -0.6751
C       -2.7670  -0.3670  0.6579
C       2.7604  0.3861  -0.6956
C       2.6624  -0.3499  0.6392
H       -1.4807  0.9442  -2.0275
H       -2.8334  1.4426  -0.5472
H       -3.5757  0.0658  -1.3215
H       -3.5859  -0.0917  1.3073
H       -2.8055  -1.4321  0.5120
H       -1.7255  0.5892  2.0272
H       -1.5425  -0.9619  2.0687
H       1.7108  -0.6195  -1.9871
H       1.4579  0.9181  -2.0677
H       3.5858  0.0541  -1.3050
H       2.8272  1.4591  -0.5811
H       2.7012  -1.4188  0.4773
H       3.4238  -0.0991  1.3648
H       1.3230  -0.9746  1.9029
H       1.5467  0.5783  1.9433
H       -1.6975  -0.6034  -1.9827
