27

Co      0.0000  0.0000  0.0000
Cl      0.0002  -2.3338  -0.2176
Cl      -0.0001  2.3339  0.2177
N       -1.5642  0.1528  -1.3848
N       -1.4857  -0.1530  1.3111
N       1.4857  0.1528  -1.3111
N       1.5642  -0.1525  1.3848
C       -2.8205  0.4202  -0.6412
C       -2.7717  -0.4048  0.6215
C       2.7715  0.4054  -0.6217
C       2.8208  -0.4191  0.6414
H       -1.1713  0.8995  -1.9625
H       -2.9367  1.4662  -0.4126
H       -3.6777  0.0926  -1.2178
H       -3.5938  -0.1013  1.2527
H       -2.8883  -1.4507  0.3782
H       -1.2839  0.7552  1.7670
H       -1.0736  -0.9197  1.8590
H       1.2796  -0.7558  -1.7662
H       1.0733  0.9189  -1.8597
H       3.5893  0.1020  -1.2572
H       2.8877  1.4515  -0.3788
H       2.9377  -1.4651  0.4132
H       3.6776  -0.0906  1.2181
H       1.1717  -0.8993  1.9624
H       1.3773  0.7707  1.8108
H       -1.3778  -0.7703  -1.8108
