27

Co      0.0000  0.0000  0.0000
Cl      0.0002  -2.2823  -0.2159
Cl      -0.0001  2.2823  0.2160
N       -1.4387  0.1779  -1.2978
N       -1.4387  -0.1780  1.2977
N       1.4387  0.1778  -1.2978
N       1.4386  -0.1775  1.2978
C       -2.7797  0.3818  -0.6351
C       -2.7799  -0.3811  0.6351
C       2.7798  0.3818  -0.6352
C       2.7799  -0.3807  0.6353
H       -1.4089  0.8302  -2.0903
H       -2.7790  1.4365  -0.3993
H       -3.6183  0.1688  -1.2811
H       -3.6182  -0.1677  1.2813
H       -2.7796  -1.4358  0.3993
H       -1.3534  0.7894  1.6464
H       -1.4093  -0.8308  2.0899
H       1.3536  -0.7900  -1.6457
H       1.4091  0.8299  -2.0861
H       3.6182  0.1728  -1.2813
H       2.7791  1.4366  -0.3999
H       2.7799  -1.4355  0.3999
H       3.6182  -0.1712  1.2814
H       1.4048  -0.8300  2.0858
H       1.3531  0.7901  1.6461
H       -1.3536  -0.7898  -1.6461
