27

Co      0.0000  0.0000  0.0000
Cl      0.0002  -2.3056  -0.2198
Cl      -0.0001  2.3056  0.2199
N       -1.6760  0.0987  -1.4074
N       -1.5974  -0.0988  1.3337
N       1.5975  0.1024  -1.3337
N       1.6760  -0.1021  1.4074
C       -2.8025  0.4444  -0.6018
C       -2.7536  -0.4290  0.5821
C       2.7535  0.4296  -0.5823
C       2.8027  -0.4433  0.6020
H       -1.1639  0.9089  -1.8845
H       -2.9560  1.4895  -0.3726
H       -3.6975  0.0854  -1.1131
H       -3.6136  -0.0942  1.1480
H       -2.9076  -1.4712  0.3383
H       -1.5611  0.7172  1.9199
H       -1.0661  -0.9291  1.7809
H       1.5530  -0.7178  -1.9229
H       1.0659  0.9320  -1.7823
H       3.6091  0.0867  -1.1525
H       2.9108  1.4682  -0.3426
H       2.9607  -1.4818  0.3770
H       3.6974  -0.0753  1.1134
H       1.1687  -0.9124  1.8851
H       1.6507  0.7326  1.9675
H       -1.6550  -0.7323  -1.9638
