27

Co      -0.0741  -0.0427  -0.0422
Cl      0.0068  -2.2578  -0.2105
Cl      0.0064  2.3211  0.2214
N       -1.4462  0.1493  -1.3442
N       -1.4331  -0.1352  1.3039
N       1.4348  0.1596  -1.3151
N       1.5788  -0.1451  1.4222
C       -2.7386  0.4013  -0.6299
C       -2.7388  -0.4063  0.6504
C       2.7451  0.3885  -0.6096
C       2.8435  -0.4226  0.6695
H       -1.2497  0.9352  -1.9417
H       -2.7772  1.4540  -0.4084
H       -3.5696  0.1542  -1.2679
H       -3.5548  -0.1194  1.2902
H       -2.8064  -1.4631  0.4536
H       -1.4530  0.7495  1.7790
H       -1.2257  -0.8512  1.9701
H       1.5033  -0.6564  -1.9015
H       1.2729  0.9569  -1.9057
H       3.5594  0.1689  -1.2847
H       2.7799  1.4413  -0.3720
H       2.9075  -1.4794  0.4860
H       3.7213  -0.1139  1.2285
H       1.4450  -0.8332  2.1405
H       1.6395  0.7618  1.8585
H       -1.5129  -0.6720  -1.9104
