27

Co      0.0000  -0.0488  -0.0034
Cl      0.0002  -2.3002  -0.2142
Cl      -0.0001  2.3676  0.2211
N       -1.5531  0.1607  -1.3328
N       -1.5531  -0.1507  1.3293
N       1.5531  0.1606  -1.3327
N       1.5531  -0.1502  1.3294
C       -2.7594  0.3875  -0.6044
C       -2.7596  -0.3868  0.6077
C       2.7594  0.3875  -0.6045
C       2.7596  -0.3864  0.6079
H       -1.1600  0.9543  -1.8587
H       -2.9178  1.4363  -0.3819
H       -3.6194  0.0305  -1.1597
H       -3.6239  -0.0227  1.1587
H       -2.9185  -1.4328  0.3920
H       -1.3477  0.7861  1.7368
H       -1.1975  -0.8875  1.9290
H       1.3703  -0.7228  -1.8236
H       1.1602  0.9540  -1.8590
H       3.6194  0.0301  -1.1598
H       2.9179  1.4335  -0.3825
H       2.9188  -1.4324  0.3927
H       3.6193  -0.0218  1.1634
H       1.1974  -0.8867  1.9293
H       1.3429  0.7868  1.7365
H       -1.3704  -0.7225  -1.8240
