27

Co      -0.0490  -0.0488  -0.0034
Cl      0.0068  -2.3073  -0.2142
Cl      0.0064  2.3747  0.2211
N       -1.5616  0.1671  -1.4180
N       -1.5616  -0.1571  1.4145
N       1.5877  0.1638  -1.3624
N       1.5877  -0.1534  1.3590
C       -2.7268  0.3818  -0.6140
C       -2.7270  -0.3811  0.6174
C       2.7825  0.3883  -0.6044
C       2.7826  -0.3872  0.6078
H       -1.1691  0.9881  -1.9092
H       -2.8684  1.4306  -0.3949
H       -3.6246  0.0304  -1.1219
H       -3.6291  -0.0225  1.1209
H       -2.8690  -1.4271  0.4050
H       -1.3593  0.7619  1.8511
H       -1.2066  -0.9213  1.9794
H       1.4114  -0.7182  -1.8529
H       1.2086  0.9584  -1.8898
H       3.6573  0.0398  -1.1450
H       2.9339  1.4344  -0.3791
H       2.9347  -1.4333  0.3893
H       3.6572  -0.0315  1.1485
H       1.2457  -0.8911  1.9602
H       1.3839  0.7823  1.7658
H       -1.3820  -0.6983  -1.9383
