27

Co      0.0741  -0.0061  0.0389
Cl      -0.0063  -2.2765  -0.2105
Cl      -0.0067  2.2806  0.2065
N       -1.4333  0.1846  -1.2830
N       -1.4464  -0.1888  1.3198
N       1.4447  0.1704  -1.3120
N       1.3007  -0.1742  1.2016
C       -2.8202  0.3461  -0.6757
C       -2.8204  -0.3397  0.6585
C       2.8137  0.3588  -0.6962
C       2.7157  -0.3225  0.6398
H       -1.4250  0.9423  -1.9658
H       -2.7790  1.4202  -0.5247
H       -3.7394  0.1049  -1.2031
H       -3.7496  -0.1307  1.1890
H       -2.7511  -1.4096  0.4896
H       -1.5314  0.6354  1.8909
H       -1.4868  -0.9601  2.0071
H       1.5167  -0.6658  -1.8508
H       1.4022  0.9162  -2.0060
H       3.7495  0.0931  -1.1866
H       2.7727  1.4367  -0.5586
H       2.6468  -1.3963  0.4548
H       3.5875  -0.1382  1.2465
H       1.2673  -0.9727  1.8413
H       1.3526  0.6245  1.8070
H       -1.5034  -0.6497  -1.8464
