27

Co      -0.0741  0.0061  -0.0389
Cl      0.0068  -2.3024  -0.2214
Cl      0.0064  2.2984  0.2255
N       -1.4962  0.1239  -1.3962
N       -1.4831  -0.1199  1.3593
N       1.4848  0.1380  -1.3671
N       1.6287  -0.1336  1.4775
C       -2.7301  0.4300  -0.6273
C       -2.7303  -0.4350  0.6444
C       2.7366  0.4172  -0.6071
C       2.8349  -0.4513  0.6636
H       -1.1664  0.8397  -2.0384
H       -2.6784  1.4838  -0.3739
H       -3.7068  0.2288  -1.0936
H       -3.6921  -0.2007  1.1126
H       -2.7077  -1.4928  0.4091
H       -1.4650  0.7836  1.7985
H       -1.1054  -0.8231  1.9962
H       1.4846  -0.7545  -1.8371
H       1.1896  0.8653  -1.9987
H       3.6967  0.2397  -1.1104
H       2.6849  1.4673  -0.3412
H       2.8126  -1.5055  0.4452
H       3.8586  -0.1915  1.0508
H       1.3247  -0.8089  2.1628
H       1.6478  0.7959  1.8817
H       -1.4980  -0.7701  -1.8423
