27

Co      -0.0741  -0.0427  -0.0422
Cl      0.0068  -2.3094  -0.2122
Cl      0.0064  2.3727  0.2231
N       -1.5014  0.1640  -1.3897
N       -1.4883  -0.1500  1.3494
N       1.4900  0.1744  -1.3605
N       1.6339  -0.1599  1.4676
C       -2.7679  0.4021  -0.6443
C       -2.7682  -0.4071  0.6649
C       2.7745  0.3893  -0.6241
C       2.8728  -0.4234  0.6840
H       -1.1568  0.9514  -1.9444
H       -2.7920  1.4596  -0.4377
H       -3.7137  0.1211  -1.1209
H       -3.6989  -0.0862  1.1432
H       -2.8212  -1.4687  0.4830
H       -1.4253  0.7526  1.7986
H       -1.1329  -0.8675  1.9729
H       1.4757  -0.6595  -1.9211
H       1.1800  0.9732  -1.9085
H       3.7035  0.1357  -1.1377
H       2.7947  1.4469  -0.4013
H       2.9223  -1.4850  0.5153
H       3.8655  -0.0808  1.0815
H       1.3521  -0.8495  2.1432
H       1.6118  0.7649  1.8781
H       -1.4853  -0.6751  -1.9300
