27

Co      0.0000  0.0488  0.0034
Cl      0.0002  -2.3070  -0.2154
Cl      -0.0001  2.2397  0.2088
N       -1.3376  0.1913  -1.3341
N       -1.3376  -0.2015  1.3374
N       1.3376  0.1875  -1.3340
N       1.3375  -0.1973  1.3374
C       -2.7503  0.3827  -0.6809
C       -2.7505  -0.3820  0.6775
C       2.7503  0.3826  -0.6810
C       2.7505  -0.3815  0.6777
H       -1.3001  0.8443  -2.1166
H       -2.7519  1.4383  -0.4696
H       -3.5559  0.1574  -1.3638
H       -3.5559  -0.1630  1.3606
H       -2.7526  -1.4404  0.4595
H       -1.2446  0.7218  1.7632
H       -1.2635  -0.9122  2.0454
H       1.2217  -0.7864  -1.6712
H       1.3003  0.8402  -2.1162
H       3.5559  0.1652  -1.3639
H       2.7483  1.4449  -0.4664
H       2.7491  -1.4438  0.4564
H       3.5558  -0.1703  1.3607
H       1.2590  -0.9076  2.0451
H       1.2481  0.7226  1.7591
H       -1.2180  -0.7862  -1.6753
