27

Co      -0.0490  -0.0488  -0.0034
Cl      0.0068  -2.2238  -0.2072
Cl      0.0064  2.2912  0.2140
N       -1.5156  0.1232  -1.4441
N       -1.5156  -0.1132  1.4406
N       1.5418  0.1198  -1.3885
N       1.5417  -0.1094  1.3851
C       -2.7922  0.4000  -0.5892
C       -2.7924  -0.3993  0.5925
C       2.8479  0.4065  -0.5795
C       2.8480  -0.4054  0.5830
H       -1.0650  1.0360  -1.8188
H       -2.8838  1.4403  -0.3409
H       -3.6857  0.0888  -1.1182
H       -3.6902  -0.0810  1.1172
H       -2.8844  -1.4396  0.3510
H       -1.3733  0.7245  2.0100
H       -1.1025  -0.9693  1.8890
H       1.4254  -0.6808  -2.0119
H       1.1044  1.0063  -1.8038
H       3.7184  0.0938  -1.1384
H       2.9521  1.4469  -0.3252
H       2.9530  -1.4458  0.3353
H       3.7183  -0.0855  1.1419
H       1.1460  -0.9391  1.8742
H       1.3980  0.7448  1.9247
H       -1.3960  -0.6609  -2.0973
