27

Co      0.0250  0.0488  0.0034
Cl      0.0002  -2.3107  -0.2229
Cl      -0.0001  2.2435  0.2163
N       -1.3657  0.1710  -1.3267
N       -1.4442  -0.1812  1.4036
N       1.4033  0.1573  -1.3001
N       1.3247  -0.1671  1.2299
C       -2.6854  0.3739  -0.6315
C       -2.7347  -0.3879  0.6478
C       2.7345  0.3932  -0.6422
C       2.6856  -0.3773  0.6192
H       -1.3633  0.8101  -2.1364
H       -2.6587  1.4286  -0.3871
H       -3.5392  0.1870  -1.2659
H       -3.6275  -0.1829  1.2234
H       -2.7085  -1.4426  0.4113
H       -1.3965  0.7656  1.7858
H       -1.4249  -0.8584  2.1683
H       1.3106  -0.8529  -1.5770
H       1.3798  0.7583  -2.1488
H       3.5820  0.1858  -1.2723
H       2.7216  1.4479  -0.4084
H       2.6733  -1.4321  0.3640
H       3.4936  -0.2008  1.3083
H       1.2403  -0.8453  1.9747
H       1.2388  0.7743  1.6207
H       -1.2716  -0.8152  -1.6538
