27

Co      -0.0250  0.0061  -0.0389
Cl      0.0002  -2.3359  -0.2156
Cl      -0.0001  2.3318  0.2198
N       -1.5013  0.1432  -1.3164
N       -1.4882  -0.1392  1.2794
N       1.4638  0.1568  -1.3428
N       1.6077  -0.1524  1.4533
C       -2.7960  0.4074  -0.6085
C       -2.7962  -0.4124  0.6257
C       2.7470  0.3881  -0.5981
C       2.8453  -0.4222  0.6547
H       -1.2574  0.9117  -1.9129
H       -2.9193  1.4465  -0.3516
H       -3.5211  0.1375  -1.3817
H       -3.5108  -0.1095  1.3962
H       -2.9485  -1.4556  0.3868
H       -1.3598  0.7567  1.7491
H       -1.1965  -0.8951  1.8706
H       1.3492  -0.7079  -1.8691
H       1.2414  0.9629  -1.8965
H       3.4782  0.1424  -1.3756
H       2.8566  1.4272  -0.3315
H       2.9842  -1.4654  0.4354
H       3.6402  -0.0942  1.3160
H       1.3765  -0.9065  2.0606
H       1.5123  0.7493  1.9136
H       -1.3883  -0.7431  -1.7930
