27

Co      0.0000  0.0000  0.0000
Cl      0.0002  -2.3338  -0.2176
Cl      -0.0001  2.3339  0.2177
N       -1.5545  0.1480  -1.3848
N       -1.4760  -0.1481  1.3111
N       1.4760  0.1479  -1.3111
N       1.5545  -0.1476  1.3848
C       -2.8205  0.4153  -0.6315
C       -2.7717  -0.3999  0.6118
C       2.7715  0.4006  -0.6120
C       2.8208  -0.4142  0.6317
H       -1.3168  0.9092  -1.9868
H       -2.9513  1.4565  -0.3932
H       -3.5807  0.1169  -1.3487
H       -3.4968  -0.1256  1.3836
H       -2.9028  -1.4410  0.3588
H       -1.3566  0.7310  1.8106
H       -1.2191  -0.9294  1.8832
H       1.3524  -0.7316  -1.8099
H       1.2188  0.9286  -1.8839
H       3.4923  0.1263  -1.3881
H       2.9023  1.4418  -0.3594
H       2.9522  -1.4554  0.3938
H       3.5806  -0.1149  1.3490
H       1.3172  -0.9090  1.9867
H       1.4500  0.7464  1.8545
H       -1.4506  -0.7461  -1.8545
