27

Co      0.0000  0.0000  0.0000
Cl      0.0002  -2.3286  -0.2213
Cl      -0.0001  2.3287  0.2214
N       -1.4249  0.1483  -1.3382
N       -1.4249  -0.1485  1.3381
N       1.4249  0.1483  -1.3381
N       1.4249  -0.1480  1.3381
C       -2.7353  0.4006  -0.6579
C       -2.7355  -0.3999  0.6578
C       2.7353  0.4006  -0.6580
C       2.7355  -0.3995  0.6581
H       -1.3203  0.8707  -2.0356
H       -2.7113  1.4689  -0.4867
H       -3.6597  0.1498  -1.1737
H       -3.6551  -0.1487  1.1784
H       -2.7119  -1.4682  0.4867
H       -1.6370  0.6782  1.8900
H       -1.3207  -0.8712  2.0351
H       1.6418  -0.6788  -1.8893
H       1.3205  0.8704  -2.0358
H       3.6597  0.1494  -1.1738
H       2.7114  1.4689  -0.4873
H       2.7122  -1.4678  0.4873
H       3.6596  -0.1478  1.1740
H       1.3206  -0.8705  2.0355
H       1.6413  0.6789  1.8897
H       -1.6418  -0.6785  -1.8897
