27

Co      0.0000  0.0000  0.0000
Cl      0.0002  -2.3410  -0.2176
Cl      -0.0001  2.3411  0.2177
N       -1.5780  0.1203  -1.3797
N       -1.5780  -0.1204  1.3796
N       1.5780  0.1202  -1.3796
N       1.5780  -0.1199  1.3796
C       -2.7461  0.4060  -0.6010
C       -2.7463  -0.4053  0.6010
C       2.7461  0.4059  -0.6011
C       2.7463  -0.4048  0.6012
H       -1.2132  0.9942  -1.8176
H       -2.9707  1.4499  -0.3979
H       -3.5055  0.0225  -1.2789
H       -3.5100  -0.0214  1.2745
H       -2.9714  -1.4464  0.3980
H       -1.6076  0.6494  2.0417
H       -1.2137  -0.9948  1.8171
H       1.6034  -0.6501  -2.0409
H       1.2134  0.9939  -1.8222
H       3.5054  0.0177  -1.2790
H       2.9709  1.4471  -0.3986
H       2.9717  -1.4460  0.3986
H       3.5054  -0.0161  1.2792
H       1.2180  -0.9940  1.8219
H       1.6029  0.6502  2.0413
H       -1.6034  -0.6498  -2.0413
