27

Co      -0.0490  -0.0488  -0.0034
Cl      0.0068  -2.2719  -0.2164
Cl      0.0064  2.3393  0.2232
N       -1.6192  0.1364  -1.4089
N       -1.6192  -0.1264  1.4054
N       1.6454  0.1368  -1.3533
N       1.6453  -0.1264  1.3499
C       -2.7457  0.4426  -0.5996
C       -2.7460  -0.4419  0.6030
C       2.8014  0.4491  -0.5899
C       2.8015  -0.4480  0.5934
H       -1.1298  0.9007  -1.9402
H       -2.9431  1.4877  -0.3718
H       -3.6192  0.0490  -1.1241
H       -3.6237  -0.0412  1.1230
H       -2.9437  -1.4841  0.3819
H       -1.5598  0.7998  1.8124
H       -1.1672  -0.8339  2.0104
H       1.6082  -0.7561  -1.8179
H       1.1692  0.8747  -1.9171
H       3.6519  0.0547  -1.1471
H       3.0123  1.4877  -0.3599
H       3.0131  -1.4866  0.3700
H       3.6518  -0.0463  1.1506
H       1.2064  -0.8074  1.9874
H       1.5807  0.8202  1.7308
H       -1.5825  -0.7362  -1.8996
