27

Co      0.0250  0.0427  0.0422
Cl      0.0002  -2.2695  -0.2196
Cl      -0.0001  2.2063  0.2089
N       -1.4417  0.1372  -1.3309
N       -1.4549  -0.1515  1.3710
N       1.4793  0.1235  -1.3043
N       1.3353  -0.1374  1.1973
C       -2.7370  0.4099  -0.6498
C       -2.7372  -0.4034  0.6292
C       2.7862  0.4291  -0.6605
C       2.6881  -0.3928  0.6007
H       -1.2743  0.8418  -2.0203
H       -2.7955  1.4666  -0.4492
H       -3.5696  0.1297  -1.2721
H       -3.5843  -0.1623  1.2500
H       -2.7675  -1.4561  0.4040
H       -1.5415  0.6799  1.9279
H       -1.2990  -0.9269  1.9909
H       1.5210  -0.7938  -1.7190
H       1.2907  0.7900  -2.0371
H       3.6124  0.1240  -1.2785
H       2.8583  1.4859  -0.4705
H       2.7324  -1.4455  0.3566
H       3.4503  -0.1758  1.3350
H       1.1188  -0.9139  1.8016
H       1.3838  0.6886  1.7628
H       -1.4820  -0.7581  -1.7959
