27

Co      -0.0250  0.0061  -0.0389
Cl      0.0002  -2.3039  -0.2102
Cl      -0.0001  2.2998  0.2144
N       -1.5628  0.1564  -1.3684
N       -1.5497  -0.1524  1.3315
N       1.5253  0.1700  -1.3949
N       1.6692  -0.1656  1.5053
C       -2.8268  0.4099  -0.6230
C       -2.8271  -0.4149  0.6402
C       2.7778  0.3905  -0.6126
C       2.8761  -0.4246  0.6691
H       -1.1727  0.9265  -1.9239
H       -2.9307  1.4538  -0.3776
H       -3.6717  0.1127  -1.2280
H       -3.6614  -0.0846  1.2425
H       -2.9600  -1.4629  0.4127
H       -1.3436  0.7612  1.7737
H       -1.1118  -0.9099  1.8817
H       1.3331  -0.7125  -1.8936
H       1.1567  0.9777  -1.9076
H       3.6288  0.1176  -1.2219
H       2.8681  1.4345  -0.3575
H       2.9957  -1.4727  0.4614
H       3.7907  -0.0694  1.1623
H       1.2918  -0.9213  2.0717
H       1.4962  0.7539  1.9382
H       -1.3721  -0.7477  -1.8176
