27

Co      -0.0250  -0.0427  -0.0422
Cl      0.0002  -2.3060  -0.2197
Cl      -0.0001  2.3693  0.2306
N       -1.5301  0.1256  -1.2838
N       -1.5170  -0.1115  1.2435
N       1.4926  0.1429  -1.3103
N       1.6365  -0.1285  1.4174
C       -2.7602  0.4038  -0.5809
C       -2.7604  -0.4088  0.6014
C       2.7111  0.3844  -0.5705
C       2.8095  -0.4185  0.6303
H       -1.3645  0.8673  -1.9463
H       -2.7941  1.4555  -0.3332
H       -3.6162  0.1724  -1.1948
H       -3.6014  -0.1376  1.2172
H       -2.8234  -1.4618  0.3785
H       -1.5596  0.8002  1.6671
H       -1.3406  -0.7834  1.9747
H       1.5768  -0.6875  -1.8783
H       1.3484  0.9223  -1.9262
H       3.5733  0.1736  -1.1887
H       2.7352  1.4297  -0.3168
H       2.8629  -1.4678  0.4309
H       3.7352  -0.1186  1.1325
H       1.5206  -0.7986  2.1610
H       1.7129  0.7929  1.8353
H       -1.6195  -0.7227  -1.7985
