27

Co      -0.0490  0.0061  -0.0389
Cl      0.0068  -2.2523  -0.2085
Cl      0.0064  2.2483  0.2127
N       -1.4970  0.1546  -1.3873
N       -1.4839  -0.1507  1.3503
N       1.4446  0.1513  -1.2580
N       1.5886  -0.1469  1.3684
C       -2.7742  0.3990  -0.6361
C       -2.7744  -0.4041  0.6532
C       2.7808  0.3908  -0.6068
C       2.8791  -0.4249  0.6633
H       -1.3412  0.9228  -2.0149
H       -2.8131  1.4517  -0.4220
H       -3.6244  0.1432  -1.2504
H       -3.6096  -0.1151  1.2694
H       -2.8424  -1.4608  0.4572
H       -1.5263  0.7008  1.8807
H       -1.2803  -0.9061  1.9727
H       1.4905  -0.6944  -1.7950
H       1.2825  0.9127  -1.8924
H       3.5687  0.1624  -1.3127
H       2.8295  1.4435  -0.3720
H       2.9571  -1.4817  0.4759
H       3.7306  -0.1142  1.2531
H       1.4176  -0.8563  2.0565
H       1.6537  0.7358  1.8395
H       -1.5593  -0.6872  -1.9246
