27

Co      0.0232  -0.0037  0.0124
Cl      -1.1014  1.6280  -1.2242
Cl      1.1364  1.4095  1.3359
C       2.6565  -0.7022  -0.8301
C       2.1227  -1.9206  -0.0921
C       -2.5150  -1.2850  -0.4435
C       -2.4051  -1.1590  1.0649
N       1.5062  0.0934  -1.3307
N       1.0706  -1.5075  0.8876
N       -1.1335  -1.3440  -1.0355
N       -1.4976  -0.0212  1.3582
H       2.9207  -2.4485  0.3994
H       1.6608  -2.6045  -0.7910
H       -2.9955  -0.4144  -0.8534
H       -3.0866  -2.1557  -0.7236
H       1.7342  1.0676  -1.3992
H       1.2194  -0.1939  -2.2461
H       -1.9610  0.8604  1.2217
H       -1.1705  -0.0223  2.3051
H       -1.9802  -2.0524  1.5019
H       -3.3808  -1.0147  1.5045
H       0.5331  -2.3056  1.1698
H       1.4911  -1.1223  1.7132
H       3.3005  -1.0106  -1.6390
H       3.2256  -0.0746  -0.1673
H       -0.8021  -2.2880  -1.0515
H       -1.1803  -1.0203  -1.9828
