27

Co      0.0219  -0.0029  0.0131
Cl      -1.0957  1.6298  -1.2245
Cl      1.1322  1.4083  1.3349
C       2.6040  -0.7061  -0.8091
C       2.0936  -1.8759  -0.1119
C       -2.4901  -1.2716  -0.4314
C       -2.3919  -1.1425  1.0475
N       1.5026  0.0547  -1.3097
N       1.0641  -1.5008  0.8508
N       -1.1112  -1.3365  -1.0021
N       -1.4735  -0.0538  1.3357
H       2.9304  -2.3373  0.3867
H       1.6792  -2.6085  -0.7900
H       -2.9954  -0.4373  -0.8756
H       -3.0325  -2.1714  -0.6722
H       1.7445  1.0229  -1.4063
H       1.2086  -0.2518  -2.2163
H       -1.9203  0.8367  1.2050
H       -1.1552  -0.0656  2.2831
H       -1.9900  -2.0529  1.4715
H       -3.3653  -0.9869  1.4842
H       0.5529  -2.3201  1.1204
H       1.4792  -1.1278  1.6851
H       3.2815  -1.0208  -1.5869
H       3.1530  -0.0920  -0.1215
H       -0.7852  -2.2806  -0.9843
H       -1.1573  -1.0511  -1.9615
