27

Co      0.0038  0.0370  0.0065
Cl      -1.0912  1.6130  -1.2215
Cl      1.1397  1.4077  1.3366
C       2.6711  -0.7188  -0.8248
C       2.1505  -1.9464  -0.0961
C       -2.5219  -1.3105  -0.4451
C       -2.4266  -1.1573  1.0620
N       1.5129  0.0754  -1.3215
N       1.0928  -1.5244  0.8734
N       -1.1404  -1.3363  -1.0332
N       -1.4931  -0.0405  1.3769
H       2.9533  -2.4613  0.4057
H       1.7036  -2.6397  -0.7928
H       -3.0310  -0.4662  -0.8764
H       -3.0641  -2.2040  -0.7072
H       1.7588  1.0432  -1.4201
H       1.2201  -0.2311  -2.2291
H       -1.9516  0.8507  1.3207
H       -1.1285  -0.1104  2.3078
H       -2.0356  -2.0569  1.5166
H       -3.4053  -0.9828  1.4829
H       0.5580  -2.3217  1.1634
H       1.5145  -1.1328  1.6954
H       3.3214  -1.0075  -1.6360
H       3.2318  -0.0920  -0.1526
H       -0.7777  -2.2684  -1.0256
H       -1.1937  -1.0364  -1.9873
