27

Co      0.0229  0.0176  0.0143
Cl      -1.0935  1.6248  -1.2278
Cl      1.1327  1.4088  1.3359
C       2.6618  -0.7035  -0.8187
C       2.1208  -1.9281  -0.1023
C       -2.5098  -1.3049  -0.4431
C       -2.4328  -1.1616  1.0640
N       1.4980  0.0606  -1.3364
N       1.0444  -1.4924  0.8414
N       -1.1104  -1.3189  -0.9888
N       -1.4782  -0.0616  1.3598
H       2.8999  -2.4506  0.4248
H       1.6837  -2.6172  -0.8108
H       -3.0094  -0.4574  -0.8750
H       -3.0376  -2.1992  -0.7311
H       1.7222  1.0303  -1.4654
H       1.2019  -0.2793  -2.2333
H       -1.9246  0.8328  1.2657
H       -1.1383  -0.1013  2.3006
H       -2.0638  -2.0682  1.5248
H       -3.4069  -0.9612  1.4818
H       0.4838  -2.2813  1.1089
H       1.4578  -1.1268  1.6807
H       3.3308  -0.9901  -1.6142
H       3.1983  -0.0677  -0.1376
H       -0.7504  -2.2508  -0.9726
H       -1.1458  -1.0253  -1.9455
