27

Co      -0.0021  -0.0100  -0.0016
Cl      -1.1046  1.6454  -1.2322
Cl      1.1745  1.4660  1.3806
C       2.6960  -0.7041  -0.8097
C       2.1536  -1.9788  -0.1324
C       -2.5547  -1.3163  -0.4425
C       -2.4293  -1.1627  1.0536
N       1.4844  0.0393  -1.3018
N       1.0761  -1.4802  0.8630
N       -1.1512  -1.3280  -0.9971
N       -1.4578  -0.0724  1.3068
H       2.8660  -2.5215  0.4798
H       1.7284  -2.6685  -0.8510
H       -3.1142  -0.4884  -0.8444
H       -3.0158  -2.2386  -0.7713
H       1.6423  1.0317  -1.3568
H       1.0977  -0.2478  -2.1858
H       -1.8601  0.8421  1.1714
H       -1.0710  -0.0756  2.2324
H       -2.0673  -2.0902  1.4747
H       -3.3595  -0.9193  1.5422
H       0.5184  -2.2344  1.2121
H       1.4640  -0.9756  1.6439
H       3.3541  -0.8209  -1.6733
H       3.2095  -0.1137  -0.0646
H       -0.7304  -2.2389  -0.9736
H       -1.1552  -0.9965  -1.9413
