27

Co      0.0041  0.0299  0.0022
Cl      -1.0643  1.5760  -1.1970
Cl      1.1335  1.4061  1.3352
C       2.6376  -0.6973  -0.8341
C       2.1213  -1.9305  -0.0805
C       -2.5052  -1.3074  -0.4588
C       -2.4007  -1.1396  1.0567
N       1.4649  0.0884  -1.3044
N       1.0299  -1.4952  0.8461
N       -1.1159  -1.3152  -1.0222
N       -1.4396  -0.0392  1.3445
H       2.9637  -2.4211  0.3857
H       1.6590  -2.6379  -0.7531
H       -2.9842  -0.4685  -0.9358
H       -3.0826  -2.1998  -0.6552
H       1.7367  1.0483  -1.4438
H       1.2617  -0.2449  -2.2327
H       -1.9272  0.8419  1.3126
H       -1.1106  -0.1117  2.2867
H       -2.0004  -2.0243  1.5343
H       -3.3848  -0.9705  1.4686
H       0.5165  -2.3008  1.1514
H       1.5106  -1.1699  1.6721
H       3.3255  -1.0405  -1.5957
H       3.1637  -0.0279  -0.1740
H       -0.8089  -2.2671  -1.0129
H       -1.1909  -1.0594  -1.9917
