27

Co      0.0032  0.0180  0.0011
Cl      -1.0863  1.6077  -1.2134
Cl      1.1551  1.4340  1.3563
C       2.6576  -0.7094  -0.8281
C       2.1434  -1.9490  -0.0892
C       -2.5402  -1.3206  -0.4565
C       -2.4161  -1.1520  1.0565
N       1.4766  0.0761  -1.2887
N       1.0710  -1.4996  0.8536
N       -1.1511  -1.3244  -1.0269
N       -1.4527  -0.0475  1.3245
H       2.9864  -2.4568  0.3634
H       1.6640  -2.6424  -0.7647
H       -3.0255  -0.4817  -0.9299
H       -3.1161  -2.2156  -0.6517
H       1.7490  1.0388  -1.4185
H       1.2797  -0.2477  -2.2202
H       -1.9418  0.8319  1.2751
H       -1.1286  -0.1037  2.2718
H       -2.0080  -2.0354  1.5295
H       -3.3929  -0.9814  1.4828
H       0.5765  -2.3019  1.1981
H       1.5696  -1.1428  1.6543
H       3.3485  -1.0348  -1.5935
H       3.1799  -0.0445  -0.1588
H       -0.8470  -2.2798  -1.0289
H       -1.2295  -1.0606  -1.9937
