27

Co      -0.0251  0.0059  -0.0238
Cl      -1.0867  1.6028  -1.2033
Cl      1.1896  1.4853  1.3961
C       2.6877  -0.7320  -0.8218
C       2.1692  -1.9610  -0.1034
C       -2.5755  -1.3094  -0.4405
C       -2.4405  -1.1880  1.0568
N       1.5178  0.0602  -1.3133
N       1.0922  -1.5152  0.8380
N       -1.1658  -1.2818  -0.9556
N       -1.4851  -0.0696  1.2773
H       2.9647  -2.4594  0.4364
H       1.7491  -2.6751  -0.7970
H       -3.1027  -0.4695  -0.8608
H       -3.0668  -2.2204  -0.7485
H       1.7583  1.0387  -1.3495
H       1.2674  -0.1963  -2.2460
H       -1.9509  0.8143  1.1709
H       -1.1173  -0.0700  2.2099
H       -2.0237  -2.0898  1.4862
H       -3.3845  -0.9977  1.5440
H       0.5951  -2.3095  1.1939
H       1.5163  -1.0580  1.6263
H       3.3421  -1.0012  -1.6352
H       3.2381  -0.1042  -0.1400
H       -0.7698  -2.2053  -0.8813
H       -1.1874  -1.0440  -1.9329
