27

Co      0.0055  0.0313  0.0105
Cl      -1.0769  1.5866  -1.2006
Cl      1.1429  1.4085  1.3410
C       2.6465  -0.7209  -0.8134
C       2.1254  -1.9077  -0.0876
C       -2.5141  -1.3005  -0.4570
C       -2.3955  -1.1498  1.0561
N       1.4976  0.0669  -1.2920
N       1.0871  -1.4742  0.8151
N       -1.1535  -1.3685  -1.0744
N       -1.4930  -0.0093  1.3765
H       2.9684  -2.4289  0.3497
H       1.6497  -2.5851  -0.7793
H       -2.9605  -0.4284  -0.9065
H       -3.1570  -2.1565  -0.6464
H       1.7910  1.0201  -1.4638
H       1.2955  -0.2914  -2.2114
H       -2.0004  0.8586  1.3297
H       -1.1784  -0.0776  2.3261
H       -1.9543  -2.0210  1.5252
H       -3.3966  -1.0404  1.4567
H       0.5807  -2.2787  1.1329
H       1.5696  -1.1349  1.6317
H       3.3081  -1.1177  -1.5751
H       3.2131  -0.0557  -0.1809
H       -0.8768  -2.3343  -1.0871
H       -1.2463  -1.0979  -2.0383
