27

Co      -0.0290  -0.0304  -0.0171
Cl      -1.1053  1.6387  -1.2268
Cl      1.1845  1.4764  1.3893
C       2.6885  -0.7232  -0.8125
C       2.1589  -1.9561  -0.1091
C       -2.5519  -1.3077  -0.4355
C       -2.4402  -1.1743  1.0648
N       1.5173  0.0591  -1.3102
N       1.1118  -1.5013  0.8601
N       -1.1441  -1.2531  -0.9627
N       -1.4781  -0.0665  1.2861
H       2.9487  -2.4895  0.4015
H       1.7031  -2.6401  -0.8104
H       -3.0955  -0.4794  -0.8591
H       -3.0239  -2.2305  -0.7426
H       1.7382  1.0436  -1.3222
H       1.2843  -0.1852  -2.2526
H       -1.9285  0.8250  1.1629
H       -1.1172  -0.0579  2.2230
H       -2.0443  -2.0756  1.5131
H       -3.3918  -0.9671  1.5272
H       0.6430  -2.2936  1.2642
H       1.5598  -1.0067  1.6172
H       3.3520  -0.9871  -1.6207
H       3.2289  -0.0990  -0.1227
H       -0.7499  -2.1771  -0.9433
H       -1.1779  -0.9610  -1.9206
