27

Co      0.0000  0.0046  -0.0002
Cl      -1.1039  1.6290  -1.2255
Cl      1.1723  1.4553  1.3742
C       2.6978  -0.7263  -0.8178
C       2.1578  -1.9517  -0.1110
C       -2.5625  -1.3199  -0.4404
C       -2.4466  -1.1748  1.0630
N       1.5239  0.0515  -1.3100
N       1.1062  -1.4855  0.8474
N       -1.1723  -1.3168  -1.0134
N       -1.5031  -0.0573  1.3296
H       2.9371  -2.4904  0.4080
H       1.7001  -2.6314  -0.8148
H       -3.0861  -0.4793  -0.8632
H       -3.0820  -2.2234  -0.7179
H       1.7556  1.0267  -1.3953
H       1.2479  -0.2481  -2.2228
H       -1.9595  0.8313  1.2203
H       -1.1568  -0.0760  2.2714
H       -2.0480  -2.0740  1.5121
H       -3.4102  -0.9886  1.5090
H       0.5885  -2.2690  1.1969
H       1.5456  -1.0453  1.6350
H       3.3577  -0.9954  -1.6272
H       3.2442  -0.1006  -0.1314
H       -0.8081  -2.2513  -1.0231
H       -1.2230  -1.0032  -1.9637
