27

Co      0.0232  -0.0004  0.0107
Cl      -1.0969  1.6310  -1.2257
Cl      1.1334  1.4095  1.3374
C       2.6040  -0.7049  -0.8128
C       2.0911  -1.8735  -0.1095
C       -2.4828  -1.2716  -0.4302
C       -2.3943  -1.1413  1.0524
N       1.5137  0.0633  -1.3293
N       1.0690  -1.5192  0.8717
N       -1.1136  -1.3549  -1.0266
N       -1.4907  -0.0440  1.3639
H       2.9365  -2.3410  0.3695
H       1.6670  -2.5975  -0.7888
H       -2.9794  -0.4299  -0.8720
H       -3.0448  -2.1615  -0.6648
H       1.7592  1.0302  -1.4235
H       1.2233  -0.2433  -2.2372
H       -1.9399  0.8453  1.2430
H       -1.1687  -0.0693  2.3101
H       -1.9900  -2.0480  1.4801
H       -3.3788  -1.0004  1.4719
H       0.5578  -2.3459  1.1241
H       1.4805  -1.1572  1.7133
H       3.2864  -1.0330  -1.5820
H       3.1530  -0.0883  -0.1276
H       -0.7963  -2.3027  -1.0260
H       -1.1708  -1.0560  -1.9811
