27

Co      -0.0269  -0.0097  -0.0179
Cl      -1.0900  1.6104  -1.2087
Cl      1.1929  1.4896  1.4007
C       2.7088  -0.7365  -0.8174
C       2.1630  -1.9447  -0.1197
C       -2.5480  -1.2982  -0.4308
C       -2.4394  -1.1817  1.0646
N       1.5450  0.0445  -1.3312
N       1.0899  -1.4875  0.8211
N       -1.1628  -1.3251  -1.0075
N       -1.5270  -0.0466  1.3421
H       2.8887  -2.4639  0.5006
H       1.7735  -2.6515  -0.8397
H       -3.0879  -0.4448  -0.8039
H       -3.0376  -2.1956  -0.7868
H       1.7373  1.0328  -1.3415
H       1.1953  -0.2035  -2.2366
H       -1.9535  0.8507  1.2002
H       -1.1359  -0.0435  2.2665
H       -2.0391  -2.0933  1.4834
H       -3.3915  -0.9954  1.5315
H       0.5448  -2.2623  1.1411
H       1.4382  -0.9798  1.6215
H       3.3193  -0.9592  -1.6800
H       3.2936  -0.1453  -0.1303
H       -0.7377  -2.2374  -0.9812
H       -1.1786  -1.0026  -1.9556
