27

Co      -0.0021  -0.0220  0.0030
Cl      -1.0981  1.6224  -1.2192
Cl      1.1654  1.4500  1.3639
C       2.6689  -0.7186  -0.8250
C       2.1513  -1.9408  -0.0965
C       -2.5544  -1.3085  -0.4445
C       -2.4112  -1.1550  1.0543
N       1.4901  0.0753  -1.2702
N       1.0873  -1.4733  0.8456
N       -1.1646  -1.3003  -1.0156
N       -1.4580  -0.0440  1.2888
H       2.9376  -2.4480  0.4403
H       1.7103  -2.6506  -0.7836
H       -3.0893  -0.4786  -0.8697
H       -3.0640  -2.2223  -0.7093
H       1.7158  1.0558  -1.3008
H       1.2111  -0.1727  -2.1986
H       -1.9070  0.8471  1.1555
H       -1.1177  -0.0353  2.2312
H       -2.0051  -2.0528  1.4986
H       -3.3608  -0.9580  1.5258
H       0.5785  -2.2564  1.2068
H       1.5229  -1.0183  1.6292
H       3.2891  -0.9911  -1.6653
H       3.2517  -0.1020  -0.1608
H       -0.8050  -2.2347  -1.0362
H       -1.2123  -0.9724  -1.9619
