27

Co      0.0180  0.0141  0.0290
Cl      -1.0880  1.6186  -1.2239
Cl      1.1262  1.3998  1.3243
C       2.6025  -0.7098  -0.8275
C       2.0992  -1.8678  -0.0988
C       -2.4879  -1.2927  -0.4410
C       -2.3773  -1.1161  1.0373
N       1.5090  0.0722  -1.3097
N       1.0562  -1.5198  0.8639
N       -1.1323  -1.3778  -1.0636
N       -1.4508  -0.0399  1.3643
H       2.9465  -2.3113  0.4002
H       1.6928  -2.6155  -0.7665
H       -3.0100  -0.4800  -0.9073
H       -3.0457  -2.2030  -0.6209
H       1.7619  1.0359  -1.4062
H       1.1942  -0.2282  -2.2126
H       -1.8870  0.8604  1.2946
H       -1.1142  -0.1138  2.3018
H       -1.9927  -2.0250  1.4766
H       -3.3557  -0.9502  1.4587
H       0.5309  -2.3516  1.0798
H       1.4545  -1.1865  1.7283
H       3.2502  -1.0561  -1.6194
H       3.1896  -0.0976  -0.1676
H       -0.8170  -2.3242  -1.0887
H       -1.1979  -1.0535  -2.0090
