27

Co      0.0000  -0.0060  0.0017
Cl      -1.0729  1.5950  -1.2056
Cl      1.1421  1.4234  1.3468
C       2.6065  -0.7064  -0.8040
C       2.1002  -1.8894  -0.0826
C       -2.4881  -1.2953  -0.4456
C       -2.3909  -1.1354  1.0535
N       1.4801  0.0829  -1.3175
N       1.0562  -1.4990  0.8313
N       -1.1137  -1.3170  -1.0265
N       -1.4484  -0.0319  1.3461
H       2.9117  -2.3872  0.4206
H       1.6825  -2.5928  -0.7886
H       -2.9993  -0.4552  -0.8739
H       -3.0278  -2.1908  -0.7070
H       1.7232  1.0520  -1.3910
H       1.2101  -0.2090  -2.2365
H       -1.8909  0.8657  1.2741
H       -1.0862  -0.0856  2.2748
H       -2.0140  -2.0324  1.5237
H       -3.3675  -0.9396  1.4685
H       0.5297  -2.3029  1.1096
H       1.4527  -1.1031  1.6653
H       3.2251  -1.0617  -1.6140
H       3.2066  -0.0753  -0.1725
H       -0.7555  -2.2487  -1.0248
H       -1.1659  -1.0118  -1.9795
