27

Co      0.0237  -0.0041  0.0168
Cl      -1.0930  1.6275  -1.2342
Cl      1.1305  1.4069  1.3329
C       2.6395  -0.6928  -0.8174
C       2.1076  -1.9196  -0.0937
C       -2.5013  -1.3249  -0.4432
C       -2.4287  -1.1318  1.0630
N       1.4791  0.0779  -1.3229
N       1.0494  -1.4866  0.8683
N       -1.1142  -1.2978  -1.0249
N       -1.4418  -0.0614  1.3574
H       2.8957  -2.4462  0.4133
H       1.6524  -2.6047  -0.7955
H       -3.0475  -0.5163  -0.8960
H       -2.9957  -2.2520  -0.6900
H       1.6968  1.0505  -1.4219
H       1.1858  -0.2382  -2.2286
H       -1.8621  0.8496  1.2845
H       -1.0925  -0.1259  2.2930
H       -2.1021  -2.0393  1.5557
H       -3.4043  -0.8844  1.4578
H       0.5042  -2.2755  1.1568
H       1.4738  -1.1002  1.6920
H       3.2975  -0.9830  -1.6216
H       3.1886  -0.0623  -0.1438
H       -0.7529  -2.2273  -1.0872
H       -1.1782  -0.9319  -1.9564
