27

Co      -0.0044  -0.0165  0.0016
Cl      -1.0934  1.6247  -1.2262
Cl      1.1650  1.4559  1.3706
C       2.7223  -0.7045  -0.8283
C       2.1572  -1.9819  -0.0935
C       -2.5418  -1.3334  -0.4539
C       -2.4540  -1.1713  1.0778
N       1.4816  0.0701  -1.3227
N       1.0370  -1.4560  0.8222
N       -1.1265  -1.2759  -0.9864
N       -1.4610  -0.0572  1.3330
H       2.8727  -2.5622  0.4783
H       1.6954  -2.6366  -0.8232
H       -3.0579  -0.4835  -0.8680
H       -3.0383  -2.2354  -0.7828
H       1.6727  1.0538  -1.4008
H       1.2118  -0.2339  -2.2387
H       -1.9011  0.8417  1.2344
H       -1.1007  -0.0783  2.2696
H       -2.1003  -2.0676  1.5705
H       -3.4135  -0.9212  1.5042
H       0.4734  -2.2087  1.1710
H       1.4646  -1.0182  1.6188
H       3.3586  -0.9485  -1.6651
H       3.2645  -0.0566  -0.1593
H       -0.7325  -2.1976  -1.0044
H       -1.1585  -0.9434  -1.9308
