27

Co      0.0320  0.0013  0.0000
Cl      -1.0898  1.6208  -1.2210
Cl      1.1493  1.4352  1.3581
C       2.6036  -0.7108  -0.8015
C       2.0973  -1.8865  -0.1173
C       -2.4995  -1.2947  -0.4265
C       -2.4212  -1.1433  1.0552
N       1.4889  0.0369  -1.2933
N       1.0577  -1.4781  0.8186
N       -1.1284  -1.3473  -1.0248
N       -1.4859  -0.0692  1.3549
H       2.9239  -2.3381  0.4096
H       1.6962  -2.6267  -0.7941
H       -3.0184  -0.4715  -0.8779
H       -3.0370  -2.2023  -0.6539
H       1.7332  1.0025  -1.4216
H       1.1829  -0.2928  -2.1892
H       -1.9202  0.8284  1.2379
H       -1.1658  -0.1015  2.3023
H       -2.0566  -2.0547  1.5058
H       -3.4040  -0.9584  1.4579
H       0.5262  -2.2809  1.0943
H       1.4704  -1.0989  1.6504
H       3.2884  -0.9984  -1.5810
H       3.1380  -0.0950  -0.1017
H       -0.8041  -2.2924  -1.0456
H       -1.2024  -1.0367  -1.9756
