27

Co      0.0044  0.0234  -0.0029
Cl      -1.0830  1.6120  -1.2161
Cl      1.1533  1.4353  1.3602
C       2.6403  -0.6999  -0.8099
C       2.1236  -1.9405  -0.1004
C       -2.5133  -1.3161  -0.4515
C       -2.4118  -1.1447  1.0554
N       1.4803  0.0711  -1.3317
N       1.0692  -1.5286  0.8768
N       -1.1356  -1.3609  -1.0462
N       -1.4602  -0.0451  1.3678
H       2.9284  -2.4635  0.3909
H       1.6737  -2.6224  -0.8065
H       -3.0173  -0.4728  -0.8913
H       -3.0680  -2.2073  -0.6972
H       1.7125  1.0402  -1.4505
H       1.1902  -0.2599  -2.2327
H       -1.9057  0.8549  1.3280
H       -1.0849  -0.1290  2.2935
H       -2.0389  -2.0472  1.5169
H       -3.3868  -0.9504  1.4737
H       0.5332  -2.3246  1.1634
H       1.4909  -1.1411  1.7006
H       3.3178  -0.9702  -1.6039
H       3.1674  -0.0636  -0.1205
H       -0.7818  -2.2958  -1.0330
H       -1.1896  -1.0690  -2.0028
