27

Co      -0.0041  -0.0341  -0.0022
Cl      -1.1083  1.6382  -1.2243
Cl      1.1739  1.4600  1.3774
C       2.6858  -0.7169  -0.8079
C       2.1385  -1.9311  -0.1190
C       -2.5429  -1.2870  -0.4329
C       -2.4160  -1.1707  1.0614
N       1.5263  0.0601  -1.3218
N       1.1080  -1.4780  0.8655
N       -1.1602  -1.3257  -1.0220
N       -1.5105  -0.0321  1.3242
H       2.8696  -2.4855  0.4519
H       1.7041  -2.6070  -0.8445
H       -3.0790  -0.4284  -0.7988
H       -3.0425  -2.1797  -0.7823
H       1.7048  1.0516  -1.3256
H       1.1719  -0.1869  -2.2265
H       -1.9343  0.8647  1.1383
H       -1.1436  0.0061  2.2582
H       -2.0017  -2.0808  1.4721
H       -3.3636  -0.9927  1.5429
H       0.5742  -2.2497  1.2094
H       1.4818  -0.9601  1.6468
H       3.2996  -0.9372  -1.6700
H       3.2684  -0.1308  -0.1169
H       -0.7587  -2.2455  -1.0311
H       -1.1768  -0.9651  -1.9571
