27

Co      0.0129  0.0204  -0.0075
Cl      -1.0875  1.6090  -1.2146
Cl      1.1563  1.4340  1.3587
C       2.6504  -0.7128  -0.8144
C       2.1435  -1.9505  -0.0983
C       -2.5243  -1.3136  -0.4449
C       -2.4212  -1.1507  1.0642
N       1.4798  0.0728  -1.2918
N       1.0897  -1.5044  0.8619
N       -1.1557  -1.3628  -1.0707
N       -1.4913  -0.0328  1.3767
H       2.9449  -2.4593  0.4129
H       1.6979  -2.6472  -0.7918
H       -3.0276  -0.4634  -0.8711
H       -3.0903  -2.1982  -0.6918
H       1.7207  1.0422  -1.3939
H       1.1791  -0.2343  -2.1970
H       -1.9442  0.8600  1.3047
H       -1.1322  -0.0921  2.3105
H       -2.0336  -2.0462  1.5254
H       -3.4028  -0.9748  1.4765
H       0.5502  -2.2870  1.1765
H       1.5167  -1.0910  1.6695
H       3.3006  -0.9708  -1.6342
H       3.2021  -0.0877  -0.1324
H       -0.8131  -2.3029  -1.0955
H       -1.2314  -1.0405  -2.0176
