27

Co      -0.0177  -0.0284  -0.0324
Cl      -1.0851  1.6140  -1.2146
Cl      1.1877  1.4886  1.4012
C       2.6562  -0.7110  -0.8118
C       2.1371  -1.9475  -0.1014
C       -2.5189  -1.3185  -0.4335
C       -2.4455  -1.1542  1.0749
N       1.4891  0.0678  -1.3172
N       1.0738  -1.5008  0.8522
N       -1.1323  -1.2832  -1.0173
N       -1.4788  -0.0602  1.3425
H       2.9321  -2.4583  0.4221
H       1.6983  -2.6445  -0.7980
H       -3.0613  -0.4950  -0.8673
H       -3.0135  -2.2367  -0.7123
H       1.7110  1.0483  -1.3495
H       1.2443  -0.1936  -2.2525
H       -1.9122  0.8418  1.2557
H       -1.1066  -0.0972  2.2731
H       -2.0931  -2.0530  1.5589
H       -3.4212  -0.9283  1.4763
H       0.5760  -2.2892  1.2163
H       1.5015  -1.0326  1.6331
H       3.3242  -0.9727  -1.6149
H       3.1886  -0.0800  -0.1224
H       -0.7528  -2.2112  -1.0515
H       -1.2044  -0.9523  -1.9616
