27

Co      0.0334  0.0020  0.0063
Cl      -1.1011  1.6390  -1.2372
Cl      1.1369  1.4103  1.3423
C       2.6080  -0.7033  -0.8059
C       2.0940  -1.8913  -0.1112
C       -2.4812  -1.3051  -0.4306
C       -2.4304  -1.1325  1.0670
N       1.4915  0.0456  -1.2967
N       1.0789  -1.4846  0.8532
N       -1.1157  -1.3337  -1.0508
N       -1.4901  -0.0621  1.3889
H       2.9733  -2.3740  0.3053
H       1.6159  -2.5925  -0.7752
H       -2.9758  -0.4859  -0.9258
H       -3.0612  -2.2087  -0.5874
H       1.7703  1.0008  -1.4700
H       1.2863  -0.3177  -2.2144
H       -1.9566  0.8254  1.3165
H       -1.2021  -0.1293  2.3500
H       -2.0650  -2.0246  1.5578
H       -3.4449  -0.9706  1.4131
H       0.5975  -2.3045  1.1740
H       1.5817  -1.1512  1.6619
H       3.3502  -1.0506  -1.5201
H       3.0991  -0.0503  -0.1065
H       -0.8502  -2.3018  -1.1288
H       -1.2387  -1.0135  -1.9966
