27

Co      0.0263  0.0185  0.0135
Cl      -1.1035  1.6335  -1.2318
Cl      1.1413  1.4167  1.3400
C       2.6543  -0.7102  -0.8259
C       2.1388  -1.9385  -0.0914
C       -2.5346  -1.3143  -0.4460
C       -2.4224  -1.1558  1.0592
N       1.4991  0.0858  -1.3184
N       1.0846  -1.5278  0.8873
N       -1.1538  -1.3543  -1.0412
N       -1.4814  -0.0427  1.3570
H       2.9470  -2.4534  0.4004
H       1.6862  -2.6308  -0.7871
H       -3.0388  -0.4671  -0.8761
H       -3.0872  -2.2049  -0.7008
H       1.7394  1.0554  -1.4113
H       1.1983  -0.2159  -2.2247
H       -1.9334  0.8493  1.2699
H       -1.1354  -0.0894  2.2958
H       -2.0323  -2.0555  1.5128
H       -3.3945  -0.9728  1.4906
H       0.5394  -2.3259  1.1580
H       1.5042  -1.1535  1.7196
H       3.2990  -1.0042  -1.6397
H       3.2216  -0.0834  -0.1596
H       -0.8102  -2.2930  -1.0555
H       -1.2080  -1.0353  -1.9896
