27

Co      -0.0021  -0.0146  0.0016
Cl      -1.1091  1.6424  -1.2307
Cl      1.1775  1.4660  1.3791
C       2.7210  -0.7129  -0.8068
C       2.1736  -1.9971  -0.1078
C       -2.5826  -1.3297  -0.4529
C       -2.4371  -1.1804  1.0618
N       1.4841  0.0650  -1.3032
N       1.1008  -1.4742  0.8558
N       -1.1754  -1.3156  -1.0046
N       -1.4676  -0.0481  1.2996
H       2.8574  -2.5973  0.4924
H       1.7236  -2.6423  -0.8576
H       -3.1259  -0.4715  -0.8171
H       -3.0576  -2.2298  -0.8287
H       1.6462  1.0590  -1.3383
H       1.1141  -0.2071  -2.1962
H       -1.8841  0.8587  1.1601
H       -1.0713  -0.0388  2.2230
H       -2.0590  -2.0917  1.5022
H       -3.3644  -0.9321  1.5588
H       0.5254  -2.2100  1.2217
H       1.4833  -0.9479  1.6294
H       3.3147  -0.8736  -1.7072
H       3.2950  -0.1116  -0.1187
H       -0.7377  -2.2213  -0.9903
H       -1.1720  -0.9680  -1.9444
