27

Co      -0.0322  0.0041  -0.0107
Cl      -1.0837  1.5964  -1.1968
Cl      1.1838  1.4730  1.3881
C       2.6970  -0.7259  -0.8306
C       2.1571  -1.9419  -0.1047
C       -2.5622  -1.2927  -0.4493
C       -2.4068  -1.1785  1.0506
N       1.5347  0.0681  -1.3326
N       1.0874  -1.5104  0.8530
N       -1.1699  -1.3265  -0.9995
N       -1.4923  -0.0341  1.3003
H       2.9459  -2.4644  0.4181
H       1.7166  -2.6370  -0.8047
H       -3.0603  -0.4305  -0.8595
H       -3.1068  -2.1772  -0.7388
H       1.7688  1.0468  -1.3732
H       1.2811  -0.1969  -2.2620
H       -1.9709  0.8423  1.1901
H       -1.1302  -0.0340  2.2344
H       -1.9487  -2.0724  1.4597
H       -3.3560  -1.0405  1.5478
H       0.5907  -2.3121  1.1907
H       1.5110  -1.0701  1.6494
H       3.3483  -1.0207  -1.6379
H       3.2564  -0.0960  -0.1579
H       -0.8019  -2.2610  -0.9354
H       -1.1901  -1.0759  -1.9720
