27

Co      -0.0017  0.0063  -0.0020
Cl      -1.1039  1.6307  -1.2237
Cl      1.1758  1.4658  1.3777
C       2.6972  -0.7373  -0.8187
C       2.1695  -1.9506  -0.1131
C       -2.5625  -1.3049  -0.4336
C       -2.4391  -1.1836  1.0585
N       1.5347  0.0523  -1.3161
N       1.1000  -1.5076  0.8367
N       -1.1734  -1.3433  -1.0035
N       -1.5169  -0.0538  1.3323
H       2.9087  -2.4589  0.4951
H       1.7814  -2.6646  -0.8285
H       -3.0979  -0.4513  -0.8109
H       -3.0576  -2.2017  -0.7818
H       1.7371  1.0364  -1.3454
H       1.1600  -0.2038  -2.2115
H       -1.9435  0.8437  1.1899
H       -1.1356  -0.0535  2.2600
H       -2.0411  -2.0991  1.4726
H       -3.3851  -0.9899  1.5377
H       0.5361  -2.2844  1.1241
H       1.4464  -1.0333  1.6556
H       3.2953  -0.9602  -1.6925
H       3.2964  -0.1502  -0.1390
H       -0.7559  -2.2569  -0.9668
H       -1.1823  -1.0290  -1.9546
