27

Co      -0.0146  -0.0187  0.0057
Cl      -1.0893  1.6167  -1.2147
Cl      1.1616  1.4551  1.3658
C       2.6808  -0.7193  -0.8285
C       2.1377  -1.9184  -0.1046
C       -2.5307  -1.2865  -0.4372
C       -2.4117  -1.1683  1.0522
N       1.5278  0.0667  -1.3419
N       1.0435  -1.4964  0.8293
N       -1.1270  -1.2990  -0.9608
N       -1.4712  -0.0544  1.3032
H       2.8683  -2.4186  0.5201
H       1.7646  -2.6435  -0.8210
H       -3.0739  -0.4445  -0.8223
H       -2.9951  -2.1972  -0.7985
H       1.7107  1.0564  -1.3366
H       1.1707  -0.1698  -2.2496
H       -1.8873  0.8479  1.1492
H       -1.0910  -0.0369  2.2287
H       -2.0200  -2.0882  1.4651
H       -3.3469  -0.9563  1.5455
H       0.4838  -2.2844  1.0933
H       1.3737  -1.0382  1.6659
H       3.2732  -0.9759  -1.6954
H       3.2879  -0.1262  -0.1646
H       -0.6968  -2.2056  -0.9047
H       -1.1096  -0.9931  -1.9151
