27

Co      0.0251  0.0156  0.0161
Cl      -1.0909  1.6250  -1.2304
Cl      1.1319  1.4121  1.3322
C       2.6330  -0.7004  -0.8368
C       2.1302  -1.9371  -0.0755
C       -2.5139  -1.3274  -0.4553
C       -2.4194  -1.1374  1.0591
N       1.4590  0.0898  -1.2925
N       1.0333  -1.5143  0.8535
N       -1.1209  -1.3221  -1.0189
N       -1.4272  -0.0601  1.3416
H       2.9805  -2.4168  0.3887
H       1.6730  -2.6516  -0.7450
H       -3.0037  -0.5021  -0.9459
H       -3.0779  -2.2328  -0.6425
H       1.7296  1.0501  -1.4274
H       1.2449  -0.2354  -2.2199
H       -1.8958  0.8302  1.3052
H       -1.1094  -0.1381  2.2896
H       -2.0571  -2.0271  1.5580
H       -3.4028  -0.9271  1.4544
H       0.5077  -2.3238  1.1311
H       1.5084  -1.2127  1.6960
H       3.3087  -1.0461  -1.6074
H       3.1724  -0.0333  -0.1858
H       -0.8188  -2.2749  -1.0406
H       -1.2012  -1.0393  -1.9793
