27

Co      0.0030  -0.0370  -0.0151
Cl      -1.0957  1.6276  -1.2208
Cl      1.1645  1.4564  1.3717
C       2.6468  -0.7050  -0.8136
C       2.1300  -1.9381  -0.0980
C       -2.5211  -1.2959  -0.4350
C       -2.4255  -1.1605  1.0695
N       1.4748  0.0746  -1.2949
N       1.0649  -1.4821  0.8471
N       -1.1200  -1.2727  -0.9831
N       -1.4677  -0.0556  1.3057
H       2.9197  -2.4447  0.4329
H       1.6930  -2.6424  -0.7920
H       -3.0439  -0.4562  -0.8551
H       -3.0208  -2.2035  -0.7374
H       1.6908  1.0567  -1.3241
H       1.2154  -0.1805  -2.2279
H       -1.9102  0.8373  1.1592
H       -1.1279  -0.0364  2.2489
H       -2.0431  -2.0606  1.5286
H       -3.3875  -0.9511  1.5087
H       0.5559  -2.2652  1.2074
H       1.4953  -1.0254  1.6325
H       3.2969  -0.9677  -1.6315
H       3.1953  -0.0798  -0.1327
H       -0.7518  -2.2036  -0.9912
H       -1.1669  -0.9588  -1.9343
