27

Co      0.0258  0.0158  0.0119
Cl      -1.0905  1.6146  -1.2210
Cl      1.1235  1.3871  1.3266
C       2.6416  -0.6883  -0.8236
C       2.0896  -1.8970  -0.1255
C       -2.4871  -1.2812  -0.4312
C       -2.4135  -1.1399  1.0595
N       1.5185  0.0569  -1.3465
N       1.0587  -1.4877  0.9013
N       -1.1091  -1.3287  -1.0283
N       -1.4964  -0.0526  1.3781
H       2.9036  -2.4042  0.3592
H       1.6229  -2.5956  -0.8038
H       -3.0082  -0.4575  -0.8840
H       -3.0174  -2.1897  -0.6605
H       1.7400  1.0268  -1.4708
H       1.2159  -0.2820  -2.2422
H       -1.9424  0.8409  1.2608
H       -1.1762  -0.0832  2.3254
H       -2.0214  -2.0522  1.4884
H       -3.3976  -0.9885  1.4755
H       0.5410  -2.2954  1.1915
H       1.5038  -1.1116  1.7162
H       3.3757  -0.9488  -1.5779
H       3.1264  -0.0698  -0.0870
H       -0.7838  -2.2734  -1.0608
H       -1.1729  -0.9962  -1.9705
