27

Co      0.0258  0.0107  0.0153
Cl      -1.0837  1.6043  -1.2193
Cl      1.1184  1.3836  1.3197
C       2.6454  -0.6861  -0.8352
C       2.0986  -1.9115  -0.0826
C       -2.4869  -1.3077  -0.4497
C       -2.4208  -1.1379  1.0724
N       1.4892  0.0953  -1.3417
N       1.0370  -1.4866  0.8810
N       -1.1028  -1.3026  -1.0381
N       -1.4692  -0.0358  1.3838
H       2.9347  -2.4471  0.3429
H       1.5927  -2.5793  -0.7671
H       -2.9689  -0.4682  -0.9228
H       -3.0622  -2.1992  -0.6521
H       1.7488  1.0562  -1.4855
H       1.2936  -0.2522  -2.2686
H       -1.9485  0.8470  1.3230
H       -1.1640  -0.0988  2.3368
H       -2.0379  -2.0203  1.5697
H       -3.4243  -0.9691  1.4436
H       0.5213  -2.2946  1.1779
H       1.5285  -1.1725  1.7062
H       3.3510  -1.0557  -1.5745
H       3.1628  -0.0140  -0.1735
H       -0.8107  -2.2599  -1.1043
H       -1.1963  -0.9766  -1.9829
