27

Co      -0.0232  0.0020  -0.0107
Cl      -1.0753  1.5959  -1.2069
Cl      1.1779  1.4691  1.3851
C       2.6853  -0.7173  -0.7984
C       2.1518  -1.9661  -0.0887
C       -2.5484  -1.3436  -0.4588
C       -2.4387  -1.1630  1.0627
N       1.4738  0.0622  -1.3103
N       1.0754  -1.4713  0.8025
N       -1.1499  -1.2879  -1.0059
N       -1.4444  -0.0528  1.3223
H       2.8958  -2.5396  0.4516
H       1.7037  -2.6177  -0.8281
H       -3.0774  -0.5030  -0.8756
H       -3.0499  -2.2496  -0.7631
H       1.6955  1.0380  -1.4048
H       1.2166  -0.2529  -2.2252
H       -1.8865  0.8502  1.2844
H       -1.0488  -0.1207  2.2421
H       -2.0870  -2.0568  1.5616
H       -3.3975  -0.9083  1.4906
H       0.5350  -2.2320  1.1645
H       1.4968  -1.0121  1.5914
H       3.3038  -1.0015  -1.6337
H       3.2557  -0.0696  -0.1523
H       -0.7433  -2.2048  -0.9933
H       -1.1896  -0.9876  -1.9606
