27

Co      0.0265  0.0217  0.0212
Cl      -1.0990  1.6386  -1.2354
Cl      1.1383  1.4145  1.3394
C       2.6168  -0.7152  -0.8191
C       2.1143  -1.8961  -0.1073
C       -2.4950  -1.3072  -0.4431
C       -2.4063  -1.1298  1.0502
N       1.4919  0.0426  -1.2788
N       1.0658  -1.4992  0.8297
N       -1.1343  -1.3877  -1.0636
N       -1.4709  -0.0545  1.3807
H       2.9939  -2.3488  0.3401
H       1.6685  -2.6250  -0.7645
H       -2.9683  -0.4789  -0.9439
H       -3.1105  -2.1982  -0.5763
H       1.7800  0.9946  -1.4660
H       1.2624  -0.3226  -2.1881
H       -1.9451  0.8302  1.3336
H       -1.1768  -0.1409  2.3383
H       -2.0193  -2.0223  1.5215
H       -3.4097  -0.9843  1.4257
H       0.5649  -2.3262  1.1030
H       1.5480  -1.2053  1.6701
H       3.3307  -1.0707  -1.5530
H       3.1361  -0.0633  -0.1385
H       -0.8794  -2.3597  -1.0980
H       -1.2398  -1.1063  -2.0227
