27

Co      -0.0038  -0.0326  -0.0065
Cl      -1.1011  1.6280  -1.2196
Cl      1.1897  1.4868  1.3981
C       2.7300  -0.7049  -0.8208
C       2.1587  -1.9859  -0.1024
C       -2.5808  -1.3305  -0.4560
C       -2.4465  -1.1844  1.0725
N       1.4854  0.0667  -1.3157
N       1.0666  -1.4447  0.8363
N       -1.1701  -1.2962  -1.0024
N       -1.4748  -0.0468  1.2960
H       2.8723  -2.5944  0.4476
H       1.6690  -2.6184  -0.8373
H       -3.0875  -0.4640  -0.8517
H       -3.0996  -2.2191  -0.7857
H       1.6727  1.0547  -1.3832
H       1.2248  -0.2309  -2.2346
H       -1.9288  0.8420  1.1534
H       -1.1269  -0.0229  2.2398
H       -2.0479  -2.0746  1.5382
H       -3.3928  -0.9655  1.5404
H       0.5235  -2.1910  1.2327
H       1.5155  -0.9691  1.6013
H       3.3760  -0.9339  -1.6549
H       3.2618  -0.0590  -0.1393
H       -0.7932  -2.2271  -1.0227
H       -1.2011  -0.9636  -1.9476
