27

Co      0.0044  0.0148  0.0000
Cl      -1.0833  1.5992  -1.2049
Cl      1.1493  1.4227  1.3504
C       2.6195  -0.7150  -0.8002
C       2.1174  -1.9048  -0.0872
C       -2.5215  -1.2952  -0.4484
C       -2.3898  -1.1507  1.0498
N       1.4984  0.0855  -1.3183
N       1.1089  -1.5228  0.8679
N       -1.1568  -1.3560  -1.0550
N       -1.4810  -0.0167  1.3475
H       2.9438  -2.4259  0.3727
H       1.6691  -2.5857  -0.7959
H       -3.0150  -0.4339  -0.8610
H       -3.0983  -2.1699  -0.7039
H       1.7570  1.0517  -1.4031
H       1.2243  -0.2129  -2.2326
H       -1.9465  0.8689  1.2717
H       -1.1187  -0.0648  2.2776
H       -1.9669  -2.0416  1.4930
H       -3.3647  -1.0019  1.4909
H       0.5947  -2.3289  1.1633
H       1.5233  -1.1162  1.6859
H       3.2457  -1.0636  -1.6077
H       3.2168  -0.0876  -0.1604
H       -0.8128  -2.2952  -1.0403
H       -1.2114  -1.0644  -2.0127
