27

Co      0.0357  0.0274  0.0100
Cl      -1.0861  1.5988  -1.2139
Cl      1.1227  1.3876  1.3175
C       2.6467  -0.7088  -0.8476
C       2.1388  -1.9345  -0.0715
C       -2.5106  -1.3032  -0.4484
C       -2.4186  -1.1495  1.0727
N       1.4778  0.1044  -1.2828
N       1.0526  -1.4947  0.8581
N       -1.1342  -1.3379  -1.0587
N       -1.4925  -0.0221  1.3814
H       2.9884  -2.4135  0.3926
H       1.6714  -2.6510  -0.7313
H       -2.9716  -0.4445  -0.9073
H       -3.1213  -2.1754  -0.6491
H       1.7626  1.0624  -1.4073
H       1.2554  -0.2056  -2.2128
H       -1.9891  0.8486  1.3022
H       -1.1965  -0.0672  2.3391
H       -2.0035  -2.0253  1.5533
H       -3.4206  -1.0112  1.4612
H       0.5191  -2.2964  1.1449
H       1.5300  -1.1827  1.6926
H       3.3018  -1.0650  -1.6315
H       3.2107  -0.0500  -0.2071
H       -0.8557  -2.3010  -1.1111
H       -1.2362  -1.0306  -2.0115
