27

Co      -0.0106  -0.0114  0.0059
Cl      -1.1046  1.6454  -1.2322
Cl      1.1745  1.4672  1.3806
C       2.6734  -0.7132  -0.7956
C       2.1372  -1.9414  -0.1228
C       -2.5589  -1.3187  -0.4433
C       -2.4215  -1.1627  1.0420
N       1.5086  0.0422  -1.3297
N       1.0968  -1.5041  0.8593
N       -1.1580  -1.3156  -0.9786
N       -1.4461  -0.0758  1.2859
H       2.8733  -2.4909  0.4479
H       1.7177  -2.6195  -0.8565
H       -3.1280  -0.4979  -0.8454
H       -3.0085  -2.2478  -0.7723
H       1.6870  1.0301  -1.3772
H       1.1471  -0.2431  -2.2199
H       -1.8485  0.8399  1.1718
H       -1.0477  -0.0943  2.2050
H       -2.0591  -2.0897  1.4659
H       -3.3478  -0.9130  1.5384
H       0.5586  -2.2818  1.1808
H       1.4678  -1.0119  1.6562
H       3.3103  -0.9179  -1.6453
H       3.2297  -0.1192  -0.0911
H       -0.7246  -2.2214  -0.9309
H       -1.1491  -1.0037  -1.9294
