27

Co      -0.0373  -0.0338  0.0002
Cl      -1.0985  1.6305  -1.2272
Cl      1.1794  1.4720  1.3804
C       2.6976  -0.7270  -0.8314
C       2.1606  -1.9409  -0.1006
C       -2.5444  -1.3204  -0.4411
C       -2.4295  -1.1523  1.0582
N       1.5253  0.0659  -1.3044
N       1.0863  -1.4871  0.8428
N       -1.1480  -1.2602  -0.9913
N       -1.4530  -0.0603  1.2961
H       2.9407  -2.4577  0.4395
H       1.7216  -2.6444  -0.7934
H       -3.1092  -0.5158  -0.8829
H       -3.0090  -2.2603  -0.7102
H       1.7441  1.0503  -1.3038
H       1.2805  -0.1649  -2.2481
H       -1.8893  0.8402  1.1996
H       -1.0880  -0.0813  2.2295
H       -2.0534  -2.0536  1.5223
H       -3.3814  -0.9253  1.5098
H       0.6056  -2.2845  1.2137
H       1.5180  -1.0159  1.6216
H       3.3285  -1.0208  -1.6560
H       3.2750  -0.1052  -0.1690
H       -0.7569  -2.1839  -1.0144
H       -1.1913  -0.9269  -1.9348
