27

Co      -0.0032  -0.0180  -0.0011
Cl      -1.0905  1.6162  -1.2176
Cl      1.1593  1.4446  1.3647
C       2.6742  -0.7118  -0.8139
C       2.1262  -1.9209  -0.1116
C       -2.5148  -1.2946  -0.4324
C       -2.4243  -1.1583  1.0644
N       1.5201  0.0628  -1.3389
N       1.0683  -1.4791  0.8482
N       -1.1306  -1.3108  -1.0145
N       -1.4959  -0.0432  1.3526
H       2.8552  -2.4526  0.4825
H       1.7172  -2.6150  -0.8343
H       -3.0642  -0.4542  -0.8159
H       -2.9937  -2.2014  -0.7747
H       1.7009  1.0500  -1.3620
H       1.1580  -0.2008  -2.2377
H       -1.9058  0.8637  1.2092
H       -1.1158  -0.0478  2.2787
H       -2.0525  -2.0738  1.5004
H       -3.3820  -0.9484  1.5106
H       0.5100  -2.2542  1.1446
H       1.4200  -0.9983  1.6604
H       3.2877  -0.9471  -1.6709
H       3.2579  -0.1198  -0.1307
H       -0.7152  -2.2230  -1.0276
H       -1.1521  -0.9473  -1.9481
