27

Co      -0.0343  -0.0109  -0.0090
Cl      -1.0931  1.6196  -1.2118
Cl      1.1960  1.4962  1.4013
C       2.7309  -0.7172  -0.8310
C       2.1849  -2.0002  -0.0938
C       -2.5893  -1.3279  -0.4659
C       -2.4232  -1.1841  1.0568
N       1.4915  0.0764  -1.3158
N       1.0721  -1.5001  0.8448
N       -1.1740  -1.3107  -0.9856
N       -1.4485  -0.0444  1.2742
H       2.9222  -2.5741  0.4587
H       1.7242  -2.6604  -0.8195
H       -3.0903  -0.4616  -0.8699
H       -3.1125  -2.2167  -0.7885
H       1.6950  1.0635  -1.3545
H       1.2376  -0.1907  -2.2453
H       -1.9134  0.8427  1.1815
H       -1.0667  -0.0495  2.2029
H       -2.0023  -2.0761  1.5007
H       -3.3547  -0.9755  1.5613
H       0.5461  -2.2677  1.2178
H       1.5049  -1.0360  1.6259
H       3.3596  -0.9576  -1.6756
H       3.2833  -0.0717  -0.1642
H       -0.7782  -2.2349  -0.9242
H       -1.1780  -1.0489  -1.9548
