27

Co      0.0030  -0.0069  0.0010
Cl      -1.0786  1.5914  -1.2071
Cl      1.1428  1.4141  1.3443
C       2.6472  -0.6954  -0.8261
C       2.1103  -1.9138  -0.0899
C       -2.5046  -1.3058  -0.4443
C       -2.4060  -1.1315  1.0643
N       1.4987  0.0996  -1.3304
N       1.0735  -1.4882  0.8973
N       -1.1378  -1.3104  -1.0723
N       -1.4722  -0.0196  1.3670
H       2.9079  -2.4511  0.3933
H       1.6336  -2.5908  -0.7852
H       -3.0406  -0.4787  -0.8753
H       -3.0341  -2.2131  -0.6841
H       1.7243  1.0748  -1.3831
H       1.2243  -0.1790  -2.2529
H       -1.9159  0.8778  1.2813
H       -1.1161  -0.0664  2.3001
H       -2.0202  -2.0248  1.5327
H       -3.3867  -0.9479  1.4766
H       0.5581  -2.2823  1.2199
H       1.5065  -1.0641  1.6965
H       3.2952  -1.0021  -1.6333
H       3.2128  -0.0693  -0.1602
H       -0.7891  -2.2469  -1.1509
H       -1.2164  -0.9303  -1.9992
