27

Co      -0.0044  -0.0162  0.0014
Cl      -1.0934  1.6247  -1.2262
Cl      1.1650  1.4559  1.3706
C       2.6848  -0.7177  -0.8215
C       2.1406  -1.9363  -0.1064
C       -2.5291  -1.3200  -0.4376
C       -2.4477  -1.1595  1.0668
N       1.5056  0.0490  -1.3093
N       1.0534  -1.4618  0.8108
N       -1.1291  -1.2778  -0.9849
N       -1.4706  -0.0725  1.3282
H       2.9051  -2.4517  0.4559
H       1.7136  -2.6385  -0.8074
H       -3.0703  -0.5005  -0.8761
H       -3.0115  -2.2443  -0.7210
H       1.7217  1.0270  -1.3832
H       1.2337  -0.2442  -2.2268
H       -1.9040  0.8281  1.2227
H       -1.1244  -0.0968  2.2686
H       -2.0950  -2.0648  1.5427
H       -3.4131  -0.9264  1.4867
H       0.5236  -2.2430  1.1432
H       1.4750  -1.0322  1.6144
H       3.3370  -0.9934  -1.6336
H       3.2339  -0.0882  -0.1436
H       -0.7507  -2.2048  -1.0075
H       -1.1775  -0.9506  -1.9306
