27

Co      0.0085  0.0032  -0.0078
Cl      -1.0839  1.6150  -1.2170
Cl      1.1542  1.4381  1.3620
C       2.6108  -0.7135  -0.8089
C       2.1103  -1.9009  -0.1112
C       -2.4868  -1.2963  -0.4343
C       -2.4166  -1.1374  1.0597
N       1.4798  0.0366  -1.2731
N       1.0591  -1.4784  0.8088
N       -1.1140  -1.3304  -1.0265
N       -1.4752  -0.0633  1.3591
H       2.9843  -2.3459  0.3555
H       1.6749  -2.6374  -0.7665
H       -2.9743  -0.4725  -0.9271
H       -3.0657  -2.1977  -0.6021
H       1.7614  0.9940  -1.4272
H       1.2799  -0.3051  -2.1986
H       -1.9490  0.8204  1.2913
H       -1.1740  -0.1210  2.3147
H       -2.0338  -2.0297  1.5350
H       -3.4182  -0.9804  1.4339
H       0.5821  -2.2959  1.1412
H       1.5480  -1.1286  1.6172
H       3.3374  -1.0460  -1.5392
H       3.1095  -0.0611  -0.1133
H       -0.8347  -2.2943  -1.0458
H       -1.2196  -1.0646  -1.9916
