27

Co      -0.0427  -0.0213  -0.0508
Cl      -1.1094  1.6396  -1.2217
Cl      1.2059  1.5083  1.4104
C       2.7837  -0.7424  -0.8624
C       2.2457  -2.0552  -0.1267
C       -2.5680  -1.2802  -0.4214
C       -2.4873  -1.2257  1.0979
N       1.5189  0.0424  -1.2643
N       1.0683  -1.4837  0.8196
N       -1.1196  -1.2281  -0.8932
N       -1.5504  -0.0813  1.2939
H       2.9879  -2.5225  0.5284
H       1.8406  -2.8122  -0.7861
H       -3.0694  -0.4123  -0.8219
H       -3.0366  -2.1797  -0.8145
H       1.7165  1.0399  -1.2286
H       1.2696  -0.1453  -2.2208
H       -2.0303  0.7868  1.0895
H       -1.2128  0.0120  2.2475
H       -2.0495  -2.1279  1.5081
H       -3.4349  -1.0601  1.5826
H       0.5734  -2.2431  1.2724
H       1.5203  -0.9544  1.5574
H       3.4681  -0.8481  -1.7086
H       3.2622  -0.1260  -0.1072
H       -0.7084  -2.1505  -0.8068
H       -1.1328  -1.0015  -1.8757
