27

Co      0.0063  0.0307  0.0020
Cl      -1.0668  1.5900  -1.1948
Cl      1.1330  1.4037  1.3384
C       2.5431  -0.7009  -0.7511
C       2.0749  -1.8765  -0.0880
C       -2.4913  -1.2828  -0.4608
C       -2.3454  -1.1368  1.0263
N       1.4433  0.0664  -1.3075
N       1.1024  -1.5314  0.8342
N       -1.1230  -1.3756  -1.0253
N       -1.4203  -0.0227  1.3210
H       2.9215  -2.3958  0.3418
H       1.6481  -2.5467  -0.8218
H       -2.9601  -0.4116  -0.8775
H       -3.0872  -2.1449  -0.7153
H       1.7117  1.0233  -1.4657
H       1.1643  -0.2967  -2.2005
H       -1.8819  0.8699  1.2912
H       -1.0371  -0.1034  2.2379
H       -1.9336  -2.0354  1.4659
H       -3.3120  -0.9728  1.4795
H       0.5853  -2.3403  1.1120
H       1.5074  -1.1449  1.6669
H       3.1786  -1.0667  -1.5419
H       3.1307  -0.0645  -0.1157
H       -0.7745  -2.3097  -0.9120
H       -1.1479  -1.1722  -2.0122
