27

Co      0.0439  -0.0008  0.0296
Cl      -1.1114  1.6671  -1.2529
Cl      1.1211  1.4023  1.3261
C       2.5790  -0.7123  -0.7705
C       2.0819  -1.8671  -0.0860
C       -2.4835  -1.3041  -0.4396
C       -2.4176  -1.1533  1.0535
N       1.4845  0.0541  -1.3351
N       1.0747  -1.5234  0.8078
N       -1.0960  -1.3375  -0.9778
N       -1.4565  -0.0677  1.3562
H       2.9064  -2.3830  0.3772
H       1.6705  -2.5430  -0.8235
H       -2.9652  -0.4476  -0.8672
H       -3.0332  -2.1858  -0.7296
H       1.7405  1.0126  -1.4915
H       1.2033  -0.3095  -2.2277
H       -1.8890  0.8336  1.2781
H       -1.1185  -0.1306  2.2953
H       -2.0800  -2.0596  1.5424
H       -3.4027  -0.9289  1.4389
H       0.5173  -2.3365  1.0165
H       1.4548  -1.1939  1.6844
H       3.2035  -1.1193  -1.5556
H       3.1854  -0.0727  -0.1557
H       -0.7447  -2.2701  -0.9419
H       -1.1281  -1.0648  -1.9415
