27

Co      -0.0609  0.0160  -0.0209
Cl      -1.0874  1.5968  -1.2011
Cl      1.2174  1.5107  1.4254
C       2.7917  -0.7191  -0.8335
C       2.1894  -2.0072  -0.1583
C       -2.6195  -1.3315  -0.4408
C       -2.4525  -1.1843  1.0459
N       1.5823  0.0365  -1.3874
N       1.1195  -1.5051  0.9304
N       -1.2175  -1.3103  -1.0046
N       -1.5013  -0.0717  1.2942
H       2.8395  -2.6062  0.4990
H       1.7496  -2.6703  -0.8945
H       -3.2589  -0.5298  -0.8090
H       -2.9954  -2.2883  -0.8169
H       1.6997  1.0458  -1.3578
H       1.1423  -0.2018  -2.2668
H       -1.8895  0.8505  1.1727
H       -1.0370  -0.0818  2.1907
H       -2.0584  -2.1266  1.4102
H       -3.3494  -0.9498  1.6097
H       0.5804  -2.2584  1.3103
H       1.4667  -0.8926  1.6751
H       3.4600  -0.7613  -1.7197
H       3.2925  -0.1620  -0.0425
H       -0.7045  -2.1912  -0.9611
H       -1.1843  -0.9488  -1.9381
