27

Co      -0.0229  0.0107  0.0102
Cl      -1.1170  1.6470  -1.2295
Cl      1.1919  1.4922  1.3900
C       2.7978  -0.7341  -0.8843
C       2.2271  -2.0211  -0.1221
C       -2.6379  -1.3161  -0.4518
C       -2.4538  -1.2145  1.0499
N       1.5503  0.0502  -1.3123
N       1.0468  -1.5047  0.8522
N       -1.1881  -1.2951  -0.9015
N       -1.4767  -0.0945  1.2247
H       2.9651  -2.5218  0.5029
H       1.8015  -2.7576  -0.7948
H       -3.1553  -0.4741  -0.8837
H       -3.1119  -2.2355  -0.7730
H       1.7480  1.0419  -1.3381
H       1.2617  -0.1928  -2.2376
H       -1.9526  0.7805  1.0582
H       -1.1446  -0.0342  2.1761
H       -1.9980  -2.1278  1.4269
H       -3.3572  -1.0311  1.6229
H       0.5180  -2.2887  1.1922
H       1.4864  -1.0853  1.6524
H       3.4753  -0.9072  -1.7175
H       3.3035  -0.1086  -0.1571
H       -0.7955  -2.2222  -0.7894
H       -1.1555  -1.0797  -1.8877
