27

Co      -0.0018  -0.0262  -0.0053
Cl      -1.1149  1.6619  -1.2318
Cl      1.1803  1.4701  1.3889
C       2.6545  -0.7043  -0.7654
C       2.1250  -1.9433  -0.1423
C       -2.5446  -1.2832  -0.4379
C       -2.3902  -1.1678  1.0424
N       1.4958  0.0371  -1.3263
N       1.1358  -1.5082  0.8900
N       -1.1641  -1.3834  -1.0252
N       -1.4841  -0.0380  1.3119
H       2.8213  -2.5266  0.4510
H       1.7084  -2.5947  -0.9059
H       -3.0900  -0.4134  -0.7690
H       -3.0318  -2.1681  -0.8341
H       1.6303  1.0358  -1.3471
H       1.0381  -0.2381  -2.1900
H       -1.8693  0.8787  1.1301
H       -1.0633  -0.0113  2.2237
H       -1.9904  -2.1018  1.4158
H       -3.3115  -0.9646  1.5675
H       0.5752  -2.2630  1.2242
H       1.4585  -0.9317  1.6664
H       3.2707  -0.8174  -1.6611
H       3.2149  -0.1499  -0.0283
H       -0.7159  -2.2842  -0.9599
H       -1.1332  -1.0467  -1.9677
