27

Co      -0.0035  0.0058  -0.0005
Cl      -1.1057  1.6289  -1.2285
Cl      1.1841  1.4853  1.3812
C       2.7160  -0.7630  -0.8665
C       2.2122  -1.9617  -0.0802
C       -2.5804  -1.3283  -0.4329
C       -2.4660  -1.1846  1.0690
N       1.5460  0.0784  -1.2821
N       1.0734  -1.5235  0.8055
N       -1.1900  -1.3235  -1.0057
N       -1.5186  -0.0623  1.3308
H       3.0090  -2.3913  0.5246
H       1.8452  -2.7382  -0.7438
H       -3.1057  -0.4929  -0.8601
H       -3.0963  -2.2372  -0.7129
H       1.8071  1.0536  -1.2830
H       1.2597  -0.1271  -2.2202
H       -1.9754  0.8215  1.2184
H       -1.1747  -0.0791  2.2744
H       -2.0716  -2.0800  1.5258
H       -3.4293  -0.9896  1.5115
H       0.5264  -2.3261  1.0663
H       1.4508  -1.1313  1.6540
H       3.2869  -1.0828  -1.7294
H       3.3595  -0.1468  -0.2459
H       -0.8179  -2.2554  -1.0159
H       -1.2442  -1.0150  -1.9600
