27

Co      -0.0166  -0.0083  0.0311
Cl      -1.0800  1.5966  -1.2002
Cl      1.1433  1.4122  1.3397
C       2.6844  -0.7008  -0.8314
C       2.1153  -1.9017  -0.1080
C       -2.5157  -1.2742  -0.4645
C       -2.3480  -1.1385  1.0383
N       1.5101  0.0681  -1.3131
N       1.0503  -1.4430  0.8393
N       -1.1442  -1.3702  -1.0595
N       -1.4543  0.0060  1.3281
H       2.8709  -2.4574  0.4208
H       1.6503  -2.5746  -0.8175
H       -2.9920  -0.4046  -0.8776
H       -3.1104  -2.1417  -0.7085
H       1.7165  1.0459  -1.4033
H       1.2168  -0.2427  -2.2193
H       -1.9246  0.8866  1.2044
H       -1.1210  0.0036  2.2703
H       -1.8802  -2.0297  1.4449
H       -3.3035  -1.0233  1.5287
H       0.5246  -2.2316  1.1577
H       1.4817  -1.0359  1.6470
H       3.3207  -1.0054  -1.6474
H       3.2554  -0.0731  -0.1683
H       -0.8233  -2.3186  -1.0530
H       -1.1692  -1.0581  -2.0097
