27

Co      0.0633  0.0010  0.0127
Cl      -1.1229  1.6636  -1.2523
Cl      1.1296  1.4023  1.3280
C       2.6542  -0.7125  -0.8272
C       2.1398  -1.9399  -0.0914
C       -2.4994  -1.2993  -0.4296
C       -2.4470  -1.1629  1.0895
N       1.4912  0.0834  -1.2946
N       1.0791  -1.5003  0.8659
N       -1.1324  -1.3810  -1.0788
N       -1.5472  -0.0262  1.4333
H       2.9372  -2.4455  0.4216
H       1.6914  -2.6369  -0.7829
H       -2.9626  -0.4170  -0.8367
H       -3.1023  -2.1537  -0.7069
H       1.7287  1.0515  -1.4012
H       1.1701  -0.2237  -2.1951
H       -1.9996  0.8581  1.2874
H       -1.2430  -0.0438  2.3921
H       -2.0665  -2.0537  1.5651
H       -3.4561  -1.0074  1.4519
H       0.4975  -2.2812  1.1224
H       1.4916  -1.1381  1.7074
H       3.2858  -0.9949  -1.6527
H       3.2288  -0.0903  -0.1629
H       -0.8265  -2.3342  -1.1676
H       -1.2243  -1.0032  -2.0075
