27

Co      -0.0043  -0.0311  -0.0004
Cl      -1.1125  1.6595  -1.2294
Cl      1.1779  1.4676  1.3840
C       2.6591  -0.7023  -0.7807
C       2.1344  -1.9573  -0.1290
C       -2.5593  -1.2923  -0.4540
C       -2.3898  -1.1703  1.0417
N       1.4556  0.0290  -1.2643
N       1.1033  -1.4623  0.8347
N       -1.1501  -1.3284  -0.9716
N       -1.4361  -0.0576  1.2464
H       2.9043  -2.5192  0.3810
H       1.6649  -2.6168  -0.8494
H       -3.0493  -0.4281  -0.8671
H       -3.0980  -2.1786  -0.7490
H       1.6553  1.0120  -1.3672
H       1.1811  -0.2916  -2.1709
H       -1.8936  0.8298  1.0903
H       -1.0998  -0.0176  2.1924
H       -1.9587  -2.0753  1.4530
H       -3.3208  -0.9875  1.5557
H       0.6108  -2.2296  1.2576
H       1.5740  -0.9772  1.5827
H       3.3471  -0.9017  -1.5893
H       3.1560  -0.0756  -0.0569
H       -0.7981  -2.2672  -0.8946
H       -1.1561  -1.0868  -1.9466
