27

Co      0.0609  -0.0152  0.0205
Cl      -1.1121  1.6416  -1.2304
Cl      1.1132  1.3748  1.3064
C       2.5871  -0.7197  -0.8020
C       2.1067  -1.8794  -0.0609
C       -2.4916  -1.2666  -0.4455
C       -2.3935  -1.1653  1.0745
N       1.4543  0.0861  -1.2299
N       1.0901  -1.4548  0.7839
N       -1.1160  -1.3343  -1.0278
N       -1.5078  -0.0040  1.3482
H       3.0180  -2.3690  0.3003
H       1.6146  -2.5675  -0.7323
H       -2.8604  -0.3509  -0.8952
H       -3.1991  -2.0834  -0.6412
H       1.7948  1.0298  -1.4106
H       1.3452  -0.2611  -2.1817
H       -2.0574  0.8343  1.2011
H       -1.2961  0.0216  2.3410
H       -1.9208  -2.0131  1.5667
H       -3.4183  -1.0942  1.4445
H       0.6050  -2.2685  1.1198
H       1.6300  -1.1758  1.6032
H       3.2331  -1.2211  -1.5374
H       3.1847  -0.0280  -0.2231
H       -0.9228  -2.3309  -1.0600
H       -1.2338  -1.0911  -2.0032
