27

Co      0.0018  0.0262  0.0053
Cl      -1.0618  1.5620  -1.1992
Cl      1.1340  1.4086  1.3321
C       2.6726  -0.7214  -0.8539
C       2.1400  -1.9176  -0.0767
C       -2.5104  -1.3229  -0.4373
C       -2.4457  -1.1424  1.0694
N       1.5191  0.0926  -1.3240
N       1.0262  -1.4797  0.8254
N       -1.1266  -1.2700  -1.0208
N       -1.4782  -0.0527  1.3743
H       2.9251  -2.3828  0.4993
H       1.7409  -2.6627  -0.7521
H       -3.0722  -0.5225  -0.8861
H       -2.9872  -2.2581  -0.6921
H       1.7651  1.0621  -1.3790
H       1.2272  -0.1741  -2.2452
H       -1.9147  0.8486  1.3179
H       -1.1177  -0.1265  2.3042
H       -2.1018  -2.0438  1.5597
H       -3.4271  -0.9153  1.4622
H       0.4659  -2.2749  1.0777
H       1.4132  -1.1051  1.6756
H       3.2793  -1.0557  -1.6849
H       3.2818  -0.0961  -0.2203
H       -0.7419  -2.1915  -1.0784
H       -1.1985  -0.9112  -1.9559
