27

Co      -0.0474  0.0195  -0.0365
Cl      -1.0874  1.6003  -1.1976
Cl      1.2244  1.5292  1.4323
C       2.7855  -0.7414  -0.8459
C       2.2271  -2.0312  -0.1492
C       -2.6025  -1.3056  -0.4336
C       -2.4517  -1.2018  1.0605
N       1.5519  0.0324  -1.3211
N       1.0893  -1.5037  0.8566
N       -1.2057  -1.3671  -1.0141
N       -1.5444  -0.0550  1.3295
H       2.8780  -2.5409  0.5981
H       1.8683  -2.7683  -0.8606
H       -3.1735  -0.4520  -0.7756
H       -3.0519  -2.2116  -0.8400
H       1.6856  1.0393  -1.2833
H       1.0806  -0.1760  -2.2013
H       -1.9501  0.8508  1.1677
H       -1.1017  -0.0333  2.2368
H       -2.0323  -2.1357  1.4148
H       -3.3645  -1.0120  1.6065
H       0.5040  -2.2443  1.1957
H       1.3960  -0.9148  1.6358
H       3.4021  -0.7561  -1.7784
H       3.3234  -0.1916  -0.0742
H       -0.7190  -2.2587  -0.9346
H       -1.1795  -1.0502  -1.9648
