27

Co      -0.0495  -0.0006  -0.0107
Cl      -1.0969  1.6123  -1.2057
Cl      1.1808  1.4496  1.3741
C       2.7932  -0.7185  -0.7903
C       2.2164  -2.0584  -0.1220
C       -2.5983  -1.3023  -0.4653
C       -2.4151  -1.2087  1.0632
N       1.4863  0.0593  -1.2961
N       1.1454  -1.4410  0.8521
N       -1.1719  -1.2889  -0.9779
N       -1.4870  -0.0076  1.2837
H       2.7899  -2.7500  0.5558
H       1.7552  -2.6487  -0.9242
H       -3.1384  -0.3954  -0.7396
H       -3.0447  -2.1742  -0.9790
H       1.5896  1.0714  -1.2816
H       1.0445  -0.1871  -2.1751
H       -1.9087  0.8946  1.1131
H       -1.0260  0.0480  2.1836
H       -1.9775  -2.1232  1.4497
H       -3.3100  -0.9859  1.6417
H       0.5532  -2.1223  1.3189
H       1.4980  -0.7616  1.5613
H       3.3339  -0.7544  -1.7775
H       3.3804  -0.1473  -0.0816
H       -0.6403  -2.1614  -0.8675
H       -1.0968  -0.9677  -1.9272
