27

Co      0.0728  0.0434  -0.0027
Cl      -1.0894  1.6237  -1.2246
Cl      1.1396  1.4229  1.3521
C       2.5202  -0.7108  -0.7810
C       2.0675  -1.8522  -0.1250
C       -2.4822  -1.2987  -0.4167
C       -2.4144  -1.1226  1.0428
N       1.4761  0.0259  -1.2846
N       1.0810  -1.5332  0.8470
N       -1.1504  -1.4454  -1.0949
N       -1.5022  -0.0776  1.4086
H       2.9753  -2.2331  0.3471
H       1.6921  -2.6300  -0.7756
H       -2.9939  -0.4879  -0.8987
H       -3.0753  -2.1996  -0.5567
H       1.7645  0.9731  -1.4894
H       1.1257  -0.3547  -2.1510
H       -1.9283  0.8263  1.3394
H       -1.1856  -0.1769  2.3538
H       -2.0702  -2.0428  1.4885
H       -3.4221  -0.9621  1.4030
H       0.5400  -2.3650  1.0373
H       1.4801  -1.2263  1.7210
H       3.2432  -1.0093  -1.5243
H       3.0382  -0.1069  -0.0583
H       -0.8767  -2.4071  -1.1295
H       -1.2685  -1.1427  -2.0471
