27

Co      0.0258  0.0350  -0.0179
Cl      -1.0556  1.5719  -1.1939
Cl      1.1252  1.3969  1.3296
C       2.5556  -0.6824  -0.8637
C       2.1007  -1.9082  -0.0970
C       -2.4344  -1.2773  -0.4402
C       -2.3671  -1.0835  1.0584
N       1.4256  0.0875  -1.2278
N       1.0006  -1.5181  0.8898
N       -1.0951  -1.3983  -1.1306
N       -1.4504  -0.0298  1.4170
H       3.0820  -2.2348  0.3185
H       1.6515  -2.7306  -0.6543
H       -2.8888  -0.4730  -1.0129
H       -3.1086  -2.1725  -0.4405
H       1.7499  1.0329  -1.3950
H       1.2571  -0.2361  -2.1731
H       -1.9566  0.8433  1.4037
H       -1.1868  -0.1382  2.3828
H       -1.9563  -1.9628  1.5291
H       -3.4022  -1.0004  1.3921
H       0.5489  -2.3691  1.1881
H       1.5585  -1.2797  1.7192
H       3.3539  -0.9904  -1.5478
H       2.9885  -0.0150  -0.1273
H       -0.9290  -2.4019  -1.2147
H       -1.2811  -1.1284  -2.0934
