27

Co      -0.0025  0.0019  0.0015
Cl      -1.0996  1.6300  -1.2165
Cl      1.1650  1.4437  1.3693
C       2.6830  -0.7096  -0.7862
C       2.1362  -1.9536  -0.1327
C       -2.5593  -1.2905  -0.4503
C       -2.4119  -1.1850  1.0472
N       1.4831  0.0180  -1.2882
N       1.0941  -1.4457  0.8126
N       -1.1428  -1.3082  -0.9477
N       -1.4674  -0.0650  1.2684
H       2.8914  -2.5192  0.3957
H       1.6741  -2.6131  -0.8568
H       -3.0493  -0.4245  -0.8597
H       -3.0851  -2.1768  -0.7656
H       1.6921  0.9954  -1.4278
H       1.2031  -0.3339  -2.1838
H       -1.9359  0.8169  1.1216
H       -1.1329  -0.0341  2.2144
H       -1.9789  -2.0918  1.4567
H       -3.3502  -1.0132  1.5521
H       0.5814  -2.2094  1.2153
H       1.5574  -0.9809  1.5735
H       3.3802  -0.9219  -1.5838
H       3.1744  -0.0792  -0.0606
H       -0.7761  -2.2415  -0.8524
H       -1.1433  -1.0831  -1.9282
