27

Co      0.0035  -0.0127  0.0039
Cl      -1.0573  1.5744  -1.1991
Cl      1.1200  1.3864  1.3261
C       2.5985  -0.6616  -0.8029
C       2.0607  -1.8946  -0.0932
C       -2.4575  -1.3040  -0.4526
C       -2.3778  -1.0983  1.0553
N       1.4439  0.0946  -1.3318
N       1.0316  -1.4621  0.8930
N       -1.0848  -1.2844  -1.0597
N       -1.4027  -0.0284  1.3601
H       2.8498  -2.4462  0.3830
H       1.5771  -2.5569  -0.8004
H       -3.0113  -0.5012  -0.9062
H       -2.9587  -2.2312  -0.6758
H       1.6462  1.0694  -1.4256
H       1.1643  -0.2289  -2.2411
H       -1.8208  0.8877  1.3104
H       -1.0321  -0.1066  2.2830
H       -2.0402  -2.0019  1.5453
H       -3.3559  -0.8648  1.4511
H       0.5121  -2.2470  1.2251
H       1.4738  -1.0407  1.6881
H       3.2774  -0.9436  -1.5932
H       3.1228  -0.0278  -0.1155
H       -0.7271  -2.2132  -1.1331
H       -1.1580  -0.9039  -1.9852
