27

Co      -0.0092  -0.0355  -0.0113
Cl      -1.0872  1.5975  -1.2038
Cl      1.2061  1.5246  1.4144
C       2.8044  -0.7275  -0.8781
C       2.2158  -2.0264  -0.0667
C       -2.6170  -1.3476  -0.4605
C       -2.4878  -1.2184  1.0935
N       1.4966  0.0976  -1.3173
N       0.9852  -1.4253  0.7613
N       -1.1782  -1.2621  -0.9597
N       -1.4930  -0.0486  1.2858
H       2.8664  -2.5992  0.6185
H       1.7921  -2.7086  -0.7962
H       -3.1086  -0.4586  -0.8296
H       -3.1186  -2.2268  -0.8651
H       1.6782  1.0932  -1.3194
H       1.2356  -0.1349  -2.2565
H       -1.9563  0.8301  1.1159
H       -1.1480  0.0107  2.2332
H       -2.0917  -2.0977  1.5817
H       -3.4239  -0.9690  1.5705
H       0.3670  -2.1498  1.0954
H       1.3741  -0.9825  1.5774
H       3.3565  -0.9801  -1.7792
H       3.4131  -0.0673  -0.2653
H       -0.7663  -2.1814  -0.9728
H       -1.1876  -0.9320  -1.9093
