27

Co      -0.0545  -0.0671  -0.0316
Cl      -1.0710  1.5982  -1.1958
Cl      1.2019  1.5084  1.4162
C       2.7200  -0.6809  -0.8461
C       2.1480  -1.9894  -0.1293
C       -2.5219  -1.2960  -0.4509
C       -2.3995  -1.1390  1.0660
N       1.4550  0.0563  -1.2807
N       1.0026  -1.4175  0.8464
N       -1.1135  -1.2675  -1.0065
N       -1.4232  -0.0461  1.2824
H       2.8669  -2.5208  0.4882
H       1.6872  -2.6947  -0.8082
H       -3.0655  -0.4762  -0.8911
H       -3.0032  -2.2234  -0.7242
H       1.6014  1.0592  -1.2759
H       1.1976  -0.1813  -2.2217
H       -1.8565  0.8547  1.1353
H       -1.0656  -0.0117  2.2207
H       -2.0030  -2.0421  1.5041
H       -3.3381  -0.9261  1.5443
H       0.5167  -2.1706  1.3125
H       1.4753  -0.8865  1.5709
H       3.4301  -0.7940  -1.6688
H       3.1690  -0.0530  -0.0825
H       -0.7419  -2.1997  -1.0333
H       -1.1550  -0.9305  -1.9489
