27

Co      0.0004  0.0025  0.0145
Cl      -1.0996  1.6519  -1.2485
Cl      1.1239  1.3872  1.3269
C       2.6401  -0.6814  -0.7786
C       2.0986  -1.9374  -0.1203
C       -2.4667  -1.3192  -0.4473
C       -2.4201  -1.1241  1.0621
N       1.4666  0.0425  -1.3280
N       1.0889  -1.4867  0.8831
N       -1.0748  -1.2897  -1.0130
N       -1.4289  -0.0658  1.3802
H       2.8789  -2.5252  0.3380
H       1.5987  -2.5645  -0.8502
H       -3.0072  -0.5084  -0.9063
H       -2.9580  -2.2441  -0.7006
H       1.6672  1.0145  -1.4823
H       1.1879  -0.3329  -2.2209
H       -1.8459  0.8533  1.3529
H       -1.0534  -0.1673  2.3060
H       -2.1088  -2.0376  1.5593
H       -3.4031  -0.8734  1.4379
H       0.5798  -2.2675  1.2465
H       1.5551  -1.0539  1.6602
H       3.3607  -0.9168  -1.5509
H       3.1159  -0.0458  -0.0532
H       -0.6988  -2.2139  -1.0361
H       -1.1295  -0.9548  -1.9523
