27

Co      0.0552  0.0661  0.0133
Cl      -1.0657  1.5724  -1.1898
Cl      1.1104  1.3739  1.3158
C       2.5966  -0.6742  -0.8544
C       2.0727  -1.8866  -0.1223
C       -2.5086  -1.2691  -0.4477
C       -2.3848  -1.1398  1.0362
N       1.4718  0.0494  -1.2995
N       0.9855  -1.4844  0.8741
N       -1.1141  -1.3625  -0.9919
N       -1.4534  -0.0782  1.3125
H       3.0143  -2.2861  0.2807
H       1.5944  -2.6583  -0.7174
H       -2.9454  -0.4458  -1.0039
H       -3.1447  -2.1632  -0.5182
H       1.7834  0.9922  -1.5654
H       1.3001  -0.3731  -2.2102
H       -1.9878  0.7766  1.2244
H       -1.2339  -0.1046  2.2960
H       -1.9195  -2.0351  1.4415
H       -3.3731  -1.0707  1.4798
H       0.5080  -2.3315  1.1466
H       1.5576  -1.2969  1.7187
H       3.4567  -0.9990  -1.4862
H       2.9750  0.0101  -0.0886
H       -0.9306  -2.3606  -0.9463
H       -1.2096  -1.1981  -1.9920
