27

Co      -0.0082  -0.0598  -0.0044
Cl      -1.1365  1.6838  -1.2525
Cl      1.2045  1.5057  1.4111
C       2.7224  -0.7371  -0.7948
C       2.1618  -1.9439  -0.1403
C       -2.5722  -1.3081  -0.4158
C       -2.4592  -1.1862  1.0679
N       1.5653  0.0314  -1.3325
N       1.1492  -1.4777  0.8605
N       -1.1906  -1.3226  -1.0177
N       -1.5439  -0.0577  1.3266
H       2.8351  -2.5219  0.4975
H       1.7538  -2.6103  -0.8923
H       -3.1661  -0.4668  -0.7470
H       -2.9995  -2.2260  -0.8291
H       1.7013  1.0366  -1.2832
H       1.1332  -0.1829  -2.2213
H       -1.9170  0.8594  1.1013
H       -1.1455  -0.0039  2.2524
H       -2.0900  -2.1152  1.4764
H       -3.3927  -0.9537  1.5529
H       0.5967  -2.2325  1.2113
H       1.4632  -0.8718  1.6279
H       3.3033  -0.8918  -1.7051
H       3.3291  -0.1907  -0.0862
H       -0.7253  -2.2201  -1.0589
H       -1.1906  -0.8929  -1.9293
