27

Co      0.0012  0.0380  0.0110
Cl      -1.0982  1.6224  -1.2316
Cl      1.1265  1.3867  1.3211
C       2.7021  -0.7203  -0.8597
C       2.1580  -1.9479  -0.0779
C       -2.4909  -1.3055  -0.4488
C       -2.4501  -1.1658  1.0895
N       1.5346  0.0862  -1.3340
N       1.0678  -1.5208  0.8632
N       -1.1013  -1.3052  -1.0242
N       -1.5279  -0.0315  1.4251
H       3.0451  -2.4636  0.2990
H       1.6337  -2.6232  -0.7376
H       -2.9107  -0.4371  -0.9473
H       -3.1324  -2.1671  -0.6246
H       1.8534  1.0351  -1.5023
H       1.4443  -0.2638  -2.2922
H       -2.0704  0.8219  1.4060
H       -1.2489  -0.1164  2.3927
H       -2.0218  -2.0251  1.5981
H       -3.4848  -1.0675  1.4244
H       0.5971  -2.3540  1.1835
H       1.6205  -1.2593  1.6852
H       3.4363  -1.1540  -1.5539
H       3.2048  -0.0139  -0.2140
H       -0.8511  -2.2831  -1.0580
H       -1.2190  -1.0553  -1.9943
