27

Co      0.0067  0.0301  0.0166
Cl      -1.0871  1.6239  -1.2248
Cl      1.1058  1.3516  1.3018
C       2.6023  -0.6696  -0.7702
C       2.0918  -1.9398  -0.1133
C       -2.4781  -1.2944  -0.4635
C       -2.3602  -1.1178  1.0396
N       1.4301  0.0662  -1.2978
N       1.1115  -1.5051  0.9216
N       -1.0932  -1.3326  -1.0355
N       -1.4021  -0.0311  1.3445
H       2.8982  -2.5239  0.3065
H       1.5773  -2.5669  -0.8369
H       -2.9881  -0.4580  -0.9073
H       -3.0203  -2.1922  -0.6996
H       1.6442  1.0346  -1.4622
H       1.1289  -0.3101  -2.1835
H       -1.8462  0.8756  1.3157
H       -1.0221  -0.1178  2.2652
H       -1.9793  -2.0272  1.4866
H       -3.3249  -0.9233  1.4825
H       0.6092  -2.2860  1.2954
H       1.5923  -1.0718  1.6896
H       3.3130  -0.8874  -1.5579
H       3.0857  -0.0410  -0.0433
H       -0.7374  -2.2630  -0.9941
H       -1.1291  -1.0516  -1.9937
