27

Co      0.0568  0.0164  0.0246
Cl      -1.0649  1.5777  -1.2027
Cl      1.1060  1.3700  1.3098
C       2.5127  -0.6770  -0.7618
C       2.0287  -1.8362  -0.0687
C       -2.4996  -1.3268  -0.4554
C       -2.3731  -1.1037  1.0297
N       1.4330  0.1000  -1.3220
N       1.0777  -1.4935  0.8716
N       -1.1427  -1.3289  -1.0659
N       -1.3868  -0.0415  1.3205
H       2.8747  -2.3712  0.3374
H       1.5693  -2.4964  -0.7946
H       -3.0521  -0.5238  -0.9042
H       -3.0237  -2.2487  -0.6536
H       1.6956  1.0549  -1.4823
H       1.1325  -0.2685  -2.2078
H       -1.8049  0.8749  1.2897
H       -1.0255  -0.1437  2.2428
H       -2.0442  -2.0077  1.5275
H       -3.3441  -0.8509  1.4395
H       0.5302  -2.2967  1.1127
H       1.4856  -1.1403  1.7195
H       3.1334  -1.0865  -1.5531
H       3.1278  -0.0435  -0.1493
H       -0.8005  -2.2605  -1.1165
H       -1.2156  -0.9758  -2.0019
