27

Co      0.0560  0.0464  0.0595
Cl      -1.0813  1.5839  -1.2175
Cl      1.0789  1.3104  1.2584
C       2.6549  -0.7006  -0.8301
C       2.1152  -1.9062  -0.0899
C       -2.5106  -1.3190  -0.4556
C       -2.3932  -1.1122  1.0495
N       1.4727  0.0819  -1.2479
N       1.0668  -1.4020  0.8411
N       -1.1533  -1.3459  -1.1099
N       -1.4531  -0.0130  1.3866
H       2.8768  -2.4362  0.4454
H       1.6462  -2.5999  -0.7768
H       -3.0518  -0.5063  -0.8992
H       -3.0554  -2.2318  -0.6446
H       1.7072  1.0434  -1.4162
H       1.0997  -0.2722  -2.1198
H       -1.8931  0.8876  1.3034
H       -1.1385  -0.0816  2.3325
H       -2.0208  -2.0116  1.5217
H       -3.3734  -0.9200  1.4614
H       0.4724  -2.1608  1.1254
H       1.5066  -1.0387  1.6660
H       3.2529  -0.9900  -1.6857
H       3.2638  -0.0915  -0.1810
H       -0.8349  -2.2883  -1.2366
H       -1.2424  -0.9168  -2.0196
