27

Co      -0.0308  0.0093  -0.0608
Cl      -1.0737  1.5756  -1.1900
Cl      1.2141  1.5245  1.4228
C       2.7578  -0.7328  -0.8588
C       2.2451  -2.0767  -0.0531
C       -2.6001  -1.3503  -0.4560
C       -2.4912  -1.2145  1.1030
N       1.4706  0.1300  -1.3094
N       1.0624  -1.5367  0.8472
N       -1.1786  -1.2734  -1.0003
N       -1.5128  -0.0339  1.3346
H       2.9733  -2.6182  0.5509
H       1.8119  -2.7646  -0.7663
H       -3.0948  -0.4588  -0.8264
H       -3.1166  -2.2221  -0.8502
H       1.6950  1.1187  -1.2775
H       1.2297  -0.0647  -2.2666
H       -1.9892  0.8463  1.2630
H       -1.0980  -0.0520  2.2534
H       -2.0985  -2.0886  1.6002
H       -3.4488  -0.9815  1.5468
H       0.4915  -2.2780  1.2181
H       1.4642  -1.0490  1.6345
H       3.3279  -0.9470  -1.7592
H       3.3484  -0.0779  -0.2265
H       -0.7416  -2.1839  -0.9719
H       -1.2202  -0.9903  -1.9648
