27

Co      0.0031  0.0068  -0.0175
Cl      -1.0818  1.5951  -1.1925
Cl      1.1877  1.4773  1.4038
C       2.6706  -0.7023  -0.7678
C       2.1050  -1.9271  -0.1491
C       -2.5664  -1.2908  -0.4374
C       -2.4138  -1.1841  1.0433
N       1.5187  0.0245  -1.3704
N       1.1063  -1.4714  0.8617
N       -1.1848  -1.3741  -1.0184
N       -1.5138  -0.0469  1.3168
H       2.7788  -2.5250  0.4657
H       1.6911  -2.5708  -0.9211
H       -3.1196  -0.4222  -0.7632
H       -3.0439  -2.1772  -0.8413
H       1.6593  1.0177  -1.4451
H       1.0586  -0.3022  -2.2169
H       -1.9101  0.8643  1.1411
H       -1.0933  -0.0248  2.2270
H       -2.0075  -2.1183  1.4117
H       -3.3362  -0.9903  1.5716
H       0.5178  -2.2163  1.1756
H       1.4201  -0.9136  1.6494
H       3.3147  -0.8282  -1.6369
H       3.2068  -0.1364  -0.0195
H       -0.7281  -2.2725  -0.9473
H       -1.1562  -1.0477  -1.9649
