27

Co      -0.0517  -0.0262  -0.0311
Cl      -1.0954  1.6425  -1.2334
Cl      1.1913  1.4962  1.3990
C       2.7134  -0.6985  -0.7930
C       2.1978  -2.0617  -0.0875
C       -2.5710  -1.3596  -0.4587
C       -2.4500  -1.1712  1.0657
N       1.4412  0.1024  -1.3390
N       1.0989  -1.5592  0.9122
N       -1.1289  -1.2253  -0.9381
N       -1.3863  -0.0763  1.2680
H       2.8367  -2.6838  0.5608
H       1.7791  -2.6946  -0.8735
H       -3.1981  -0.5395  -0.8032
H       -2.9028  -2.3125  -0.9404
H       1.5482  1.1167  -1.2492
H       1.0331  -0.0853  -2.2468
H       -1.7371  0.8720  1.2107
H       -0.8619  -0.1230  2.1393
H       -2.1692  -2.1060  1.5401
H       -3.3427  -0.7777  1.5768
H       0.5192  -2.2811  1.2971
H       1.4109  -0.9237  1.6706
H       3.2607  -0.7629  -1.7653
H       3.3006  -0.1148  -0.1025
H       -0.5404  -2.0716  -0.8525
H       -1.0681  -0.8852  -1.8805
