27

Co      -0.0474  0.0131  -0.0351
Cl      -1.1077  1.6301  -1.2235
Cl      1.1972  1.4816  1.3999
C       2.7139  -0.7429  -0.8085
C       2.1927  -1.9876  -0.1123
C       -2.5870  -1.3229  -0.4310
C       -2.4746  -1.1994  1.0676
N       1.5605  0.0592  -1.3423
N       1.1799  -1.5631  0.9079
N       -1.1746  -1.2369  -0.9469
N       -1.5178  -0.0797  1.2932
H       3.0120  -2.5360  0.3455
H       1.7150  -2.6531  -0.8157
H       -3.1480  -0.4999  -0.8539
H       -3.0363  -2.2543  -0.7505
H       1.8114  1.0388  -1.3512
H       1.3505  -0.1818  -2.2907
H       -1.9873  0.8066  1.2205
H       -1.1215  -0.1063  2.2172
H       -2.0658  -2.1011  1.5068
H       -3.4272  -1.0051  1.5380
H       0.7444  -2.3701  1.3349
H       1.6425  -1.0456  1.6455
H       3.4035  -1.0069  -1.5981
H       3.2383  -0.1185  -0.1039
H       -0.7463  -2.1509  -0.8825
H       -1.2065  -0.9877  -1.9187
