27

Co      0.0028  -0.0098  0.0155
Cl      -1.1028  1.6288  -1.2285
Cl      1.1185  1.3646  1.3121
C       2.5986  -0.7092  -0.7665
C       2.0811  -1.8611  -0.0892
C       -2.4684  -1.2775  -0.4387
C       -2.3810  -1.1336  1.0607
N       1.5250  0.0885  -1.3405
N       1.1781  -1.5119  0.9071
N       -1.1222  -1.3168  -1.0798
N       -1.5048  0.0107  1.3961
H       2.9220  -2.4574  0.2673
H       1.5648  -2.4689  -0.8266
H       -2.9708  -0.4159  -0.8384
H       -3.0431  -2.1496  -0.6992
H       1.7858  1.0522  -1.4220
H       1.2855  -0.2216  -2.2623
H       -1.9667  0.8987  1.3164
H       -1.1479  -0.0461  2.3281
H       -1.9649  -2.0167  1.5287
H       -3.3860  -1.0033  1.4478
H       0.7125  -2.3277  1.2538
H       1.6224  -1.0630  1.6871
H       3.2263  -1.1283  -1.5486
H       3.2148  -0.0864  -0.1452
H       -0.7829  -2.2568  -1.1342
H       -1.2001  -0.9555  -2.0114
