27

Co      -0.0086  -0.0603  -0.0214
Cl      -1.1026  1.6294  -1.2191
Cl      1.2214  1.5510  1.4340
C       2.7604  -0.7211  -0.9067
C       2.1990  -1.9916  -0.0983
C       -2.5855  -1.3226  -0.4349
C       -2.4640  -1.1778  1.0844
N       1.5247  0.0923  -1.3059
N       0.9908  -1.4786  0.8485
N       -1.1871  -1.3258  -1.0327
N       -1.5096  -0.0552  1.3135
H       2.9419  -2.4491  0.5594
H       1.7918  -2.7606  -0.7462
H       -3.1102  -0.4844  -0.8631
H       -3.1024  -2.2325  -0.7132
H       1.7111  1.0910  -1.2461
H       1.2464  -0.0788  -2.2586
H       -1.9533  0.8299  1.1171
H       -1.1922  0.0031  2.2719
H       -2.0581  -2.0713  1.5281
H       -3.4148  -0.9836  1.5463
H       0.4431  -2.2585  1.1618
H       1.3965  -1.0512  1.6632
H       3.3969  -0.9241  -1.7582
H       3.3076  -0.0965  -0.2136
H       -0.8439  -2.2714  -1.1220
H       -1.2510  -0.9455  -1.9636
