27

Co      0.0035  0.0025  0.0005
Cl      -1.0794  1.6145  -1.2220
Cl      1.1442  1.4183  1.3565
C       2.6369  -0.6676  -0.7982
C       2.0813  -1.9341  -0.1053
C       -2.4885  -1.3377  -0.4641
C       -2.4262  -1.1256  1.0665
N       1.4437  0.0500  -1.3256
N       1.0459  -1.4573  0.8633
N       -1.0938  -1.2825  -1.0257
N       -1.4137  -0.0673  1.3540
H       2.9446  -2.5236  0.2337
H       1.5041  -2.5443  -0.7990
H       -2.9642  -0.5209  -0.9986
H       -3.0736  -2.2459  -0.5914
H       1.7139  1.0038  -1.5742
H       1.3588  -0.3910  -2.2576
H       -1.9078  0.8200  1.3689
H       -1.1138  -0.1778  2.3099
H       -2.0740  -2.0013  1.6059
H       -3.4347  -0.9233  1.4094
H       0.5971  -2.2592  1.2811
H       1.6512  -1.1365  1.6251
H       3.4578  -1.0164  -1.4505
H       3.0304  0.0530  -0.0816
H       -0.8374  -2.2552  -1.0838
H       -1.2152  -1.0094  -1.9860
