27

Co      0.0457  0.0239  0.0314
Cl      -1.0902  1.6182  -1.2205
Cl      1.0943  1.3533  1.2947
C       2.5862  -0.7057  -0.7760
C       2.0643  -1.8467  -0.0869
C       -2.4696  -1.2606  -0.4415
C       -2.3923  -1.1680  1.0534
N       1.5009  0.0625  -1.3563
N       1.0627  -1.4957  0.8052
N       -1.0775  -1.3284  -0.9595
N       -1.4905  -0.0361  1.3615
H       2.8768  -2.3775  0.3752
H       1.6435  -2.5143  -0.8280
H       -2.9124  -0.3661  -0.8375
H       -3.0510  -2.1089  -0.7684
H       1.7606  1.0183  -1.5299
H       1.2170  -0.3184  -2.2434
H       -1.9591  0.8429  1.2426
H       -1.1710  -0.0553  2.3063
H       -1.9833  -2.0677  1.4988
H       -3.3793  -1.0214  1.4714
H       0.4962  -2.3052  1.0104
H       1.4438  -1.1753  1.6836
H       3.2144  -1.1311  -1.5529
H       3.1926  -0.0652  -0.1622
H       -0.7338  -2.2639  -0.8746
H       -1.0874  -1.0945  -1.9370
