27

Co      -0.0013  0.0331  0.0159
Cl      -1.0958  1.6200  -1.2292
Cl      1.1241  1.3842  1.3162
C       2.7021  -0.7228  -0.8523
C       2.1630  -1.9528  -0.0828
C       -2.5057  -1.3055  -0.4513
C       -2.4452  -1.1683  1.0797
N       1.5125  0.0690  -1.2947
N       1.0580  -1.4840  0.8215
N       -1.0964  -1.2683  -0.9751
N       -1.4935  -0.0511  1.3687
H       3.0328  -2.4562  0.3333
H       1.6582  -2.6453  -0.7401
H       -2.9426  -0.4518  -0.9547
H       -3.1078  -2.1867  -0.6393
H       1.8239  1.0203  -1.4680
H       1.4149  -0.2810  -2.2505
H       -2.0311  0.8047  1.3300
H       -1.2219  -0.1090  2.3387
H       -2.0218  -2.0349  1.5809
H       -3.4578  -1.0405  1.4489
H       0.5873  -2.3024  1.1761
H       1.6180  -1.2004  1.6287
H       3.4265  -1.1294  -1.5637
H       3.2048  -0.0213  -0.2017
H       -0.8291  -2.2389  -0.9745
H       -1.1920  -1.0455  -1.9551
