27

Co      0.0668  0.0006  0.0160
Cl      -1.1139  1.6661  -1.2588
Cl      1.1166  1.3813  1.3240
C       2.5658  -0.6972  -0.7412
C       2.0587  -1.8722  -0.0999
C       -2.4518  -1.3203  -0.4299
C       -2.4427  -1.1334  1.0778
N       1.4691  0.0462  -1.3291
N       1.1243  -1.4889  0.8457
N       -1.1031  -1.3612  -1.0854
N       -1.5060  -0.0453  1.4549
H       2.8802  -2.4509  0.3020
H       1.5758  -2.4860  -0.8501
H       -2.9459  -0.4670  -0.8544
H       -3.0304  -2.1944  -0.6820
H       1.7210  0.9998  -1.5422
H       1.1781  -0.3715  -2.2040
H       -1.9259  0.8650  1.3981
H       -1.1681  -0.1525  2.3954
H       -2.1448  -2.0309  1.6132
H       -3.4728  -0.9131  1.3691
H       0.5696  -2.2760  1.1191
H       1.5474  -1.1141  1.6735
H       3.2324  -1.0617  -1.5065
H       3.1254  -0.0600  -0.0878
H       -0.7814  -2.3049  -1.1877
H       -1.2132  -0.9732  -2.0074
