27

Co      0.0194  0.0143  -0.0234
Cl      -1.0818  1.6204  -1.2210
Cl      1.1536  1.4393  1.3684
C       2.6060  -0.6953  -0.8220
C       2.0995  -1.9105  -0.1496
C       -2.4400  -1.2759  -0.4139
C       -2.4191  -1.1172  1.0684
N       1.4870  0.0205  -1.2944
N       1.0349  -1.5018  0.8683
N       -1.0925  -1.4010  -1.0887
N       -1.5182  -0.0645  1.4481
H       2.9504  -2.3081  0.3927
H       1.6998  -2.6905  -0.7814
H       -2.9531  -0.4653  -0.9006
H       -3.0103  -2.1821  -0.5789
H       1.7151  0.9876  -1.4326
H       1.1575  -0.3151  -2.1844
H       -1.9441  0.8391  1.3601
H       -1.1922  -0.1399  2.3940
H       -2.0663  -2.0370  1.5062
H       -3.4338  -0.9760  1.4146
H       0.5219  -2.3154  1.1498
H       1.4683  -1.1267  1.6896
H       3.3872  -0.8665  -1.5643
H       3.0332  -0.0911  -0.0244
H       -0.8032  -2.3598  -1.1461
H       -1.2110  -1.0707  -2.0305
