27

Co      -0.0572  -0.0202  -0.0403
Cl      -1.0892  1.6275  -1.2238
Cl      1.1921  1.5063  1.4046
C       2.6914  -0.7407  -0.8478
C       2.1814  -1.9588  -0.0841
C       -2.5055  -1.3021  -0.4230
C       -2.4712  -1.1838  1.0850
N       1.5495  0.0817  -1.3696
N       1.0493  -1.5873  0.8415
N       -1.0861  -1.2308  -0.9145
N       -1.5010  -0.0835  1.3434
H       2.9987  -2.4029  0.4769
H       1.8118  -2.7118  -0.7670
H       -3.0356  -0.4717  -0.8582
H       -2.9618  -2.2239  -0.7701
H       1.7906  1.0646  -1.3157
H       1.3480  -0.1043  -2.3403
H       -1.9469  0.8103  1.2769
H       -1.1045  -0.1238  2.2656
H       -2.1144  -2.0868  1.5608
H       -3.4458  -0.9602  1.4897
H       0.5648  -2.4186  1.1299
H       1.4233  -1.1587  1.6747
H       3.3335  -1.0661  -1.6500
H       3.2633  -0.1039  -0.1965
H       -0.6537  -2.1405  -0.8405
H       -1.1111  -0.9937  -1.8916
