27

Co      -0.0053  -0.0237  -0.0024
Cl      -1.1323  1.6789  -1.2448
Cl      1.2072  1.5161  1.4096
C       2.7248  -0.7534  -0.7841
C       2.2125  -2.0035  -0.0819
C       -2.6143  -1.3308  -0.4532
C       -2.4427  -1.2208  1.0644
N       1.5099  0.0797  -1.3214
N       1.1530  -1.5423  0.8211
N       -1.2166  -1.3825  -1.0101
N       -1.5149  -0.0214  1.3108
H       2.8592  -2.6207  0.5627
H       1.8295  -2.6338  -0.8904
H       -3.1174  -0.4015  -0.7227
H       -3.1268  -2.1733  -0.9545
H       1.6723  1.0785  -1.2868
H       1.0756  -0.1377  -2.2080
H       -1.9210  0.8826  1.1500
H       -1.0655  0.0021  2.2161
H       -2.0452  -2.1271  1.4936
H       -3.3601  -0.9758  1.5857
H       0.5215  -2.2742  1.1023
H       1.4111  -0.9790  1.6429
H       3.1758  -0.9695  -1.7751
H       3.4427  -0.1743  -0.1899
H       -0.7192  -2.2681  -0.9241
H       -1.1631  -1.0578  -1.9601
