27

Co      0.0141  -0.0049  -0.0262
Cl      -1.0859  1.6054  -1.2089
Cl      1.1547  1.4389  1.3598
C       2.6261  -0.7134  -0.7806
C       2.1351  -1.9474  -0.1131
C       -2.5401  -1.2902  -0.4188
C       -2.4356  -1.1742  1.0581
N       1.4716  0.0639  -1.2951
N       1.0991  -1.4969  0.8539
N       -1.1305  -1.2575  -0.9430
N       -1.4764  -0.0774  1.2850
H       2.8464  -2.4390  0.5472
H       1.7873  -2.6798  -0.8402
H       -3.1493  -0.4682  -0.7626
H       -2.9147  -2.2289  -0.8547
H       1.6327  1.0595  -1.2662
H       1.0108  -0.1533  -2.1770
H       -1.8480  0.8458  1.1007
H       -1.0525  -0.0423  2.1924
H       -2.0952  -2.1173  1.4662
H       -3.3553  -0.8963  1.5617
H       0.5150  -2.2436  1.1729
H       1.3931  -0.9198  1.6468
H       3.1972  -0.8347  -1.7112
H       3.2301  -0.1691  -0.0709
H       -0.6235  -2.1323  -0.8769
H       -1.1077  -0.9235  -1.8886
