27

Co      0.0474  -0.0195  0.0365
Cl      -1.0894  1.6236  -1.2335
Cl      1.0899  1.3494  1.2887
C       2.5417  -0.6843  -0.7734
C       2.0379  -1.8297  -0.0698
C       -2.4524  -1.3005  -0.4417
C       -2.3842  -1.1084  1.0513
N       1.4630  0.0973  -1.3292
N       1.0726  -1.4842  0.8588
N       -1.0850  -1.2863  -1.0319
N       -1.4179  -0.0357  1.3567
H       2.8684  -2.3685  0.3522
H       1.5810  -2.4891  -0.7974
H       -2.9887  -0.4839  -0.8794
H       -2.9671  -2.2146  -0.6862
H       1.7098  1.0586  -1.4428
H       1.1848  -0.2361  -2.2339
H       -1.8340  0.8765  1.2804
H       -1.0793  -0.1045  2.2910
H       -2.0600  -2.0098  1.5607
H       -3.3741  -0.8678  1.4232
H       0.5371  -2.2936  1.1062
H       1.4757  -1.1220  1.7062
H       3.1478  -1.1169  -1.5676
H       3.1733  -0.0543  -0.1744
H       -0.7388  -2.2169  -1.1038
H       -1.1523  -0.9077  -1.9588
