27

Co      -0.0110  -0.0764  -0.0136
Cl      -1.0918  1.6075  -1.1972
Cl      1.2051  1.5235  1.4124
C       2.6888  -0.7327  -0.8589
C       2.1613  -1.9221  -0.0860
C       -2.5777  -1.2809  -0.4371
C       -2.4060  -1.1803  1.0603
N       1.5059  0.0860  -1.2639
N       1.0244  -1.4422  0.7800
N       -1.1797  -1.2972  -0.9863
N       -1.4838  -0.0330  1.2374
H       2.9273  -2.3726  0.5424
H       1.7831  -2.6912  -0.7545
H       -3.0806  -0.4184  -0.8309
H       -3.1084  -2.1712  -0.7472
H       1.7228  1.0783  -1.2011
H       1.2490  -0.0799  -2.2225
H       -1.9476  0.8379  0.9945
H       -1.1817  0.0820  2.1981
H       -1.9441  -2.0670  1.4752
H       -3.3407  -1.0205  1.5752
H       0.5052  -2.2276  1.1184
H       1.4169  -0.9845  1.5862
H       3.2580  -1.0415  -1.7245
H       3.3225  -0.1158  -0.2330
H       -0.8358  -2.2409  -0.9962
H       -1.2106  -0.9835  -1.9411
