27

Co      -0.0521  -0.0499  -0.0371
Cl      -1.0955  1.6407  -1.2212
Cl      1.2285  1.5427  1.4515
C       2.6989  -0.7120  -0.7856
C       2.1360  -1.9571  -0.1401
C       -2.5295  -1.3206  -0.4405
C       -2.4425  -1.1640  1.0693
N       1.5095  0.0111  -1.3365
N       1.0957  -1.4702  0.8258
N       -1.1450  -1.3176  -1.0231
N       -1.4879  -0.0625  1.3390
H       2.8932  -2.5420  0.3742
H       1.6607  -2.5936  -0.8720
H       -3.0504  -0.4783  -0.8681
H       -3.0519  -2.2218  -0.7220
H       1.7019  0.9972  -1.4160
H       1.2896  -0.3073  -2.2601
H       -1.9251  0.8388  1.2538
H       -1.1079  -0.0968  2.2703
H       -2.0714  -2.0622  1.5390
H       -3.4135  -0.9587  1.4826
H       0.6296  -2.2479  1.2628
H       1.5545  -0.9513  1.5627
H       3.4272  -0.9326  -1.5518
H       3.1616  -0.0696  -0.0490
H       -0.7728  -2.2529  -1.0320
H       -1.2037  -1.0104  -1.9738
