27

Co      0.0025  -0.0019  -0.0015
Cl      -1.0771  1.5939  -1.2146
Cl      1.1494  1.4349  1.3517
C       2.6487  -0.7116  -0.8557
C       2.1333  -1.9164  -0.0681
C       -2.4956  -1.3247  -0.4386
C       -2.4285  -1.1253  1.0737
N       1.5136  0.1208  -1.3393
N       1.0452  -1.5330  0.8892
N       -1.1389  -1.3270  -1.0938
N       -1.4813  -0.0257  1.4087
H       2.9502  -2.3901  0.4502
H       1.7072  -2.6443  -0.7423
H       -3.0403  -0.5114  -0.8861
H       -3.0246  -2.2403  -0.6608
H       1.7578  1.0934  -1.3527
H       1.2346  -0.1146  -2.2741
H       -1.9117  0.8787  1.3627
H       -1.1116  -0.1173  2.3361
H       -2.0816  -2.0174  1.5732
H       -3.4247  -0.9165  1.4413
H       0.5051  -2.3467  1.1274
H       1.4322  -1.1603  1.7412
H       3.2560  -1.0600  -1.6806
H       3.2634  -0.0851  -0.2289
H       -0.7860  -2.2614  -1.2041
H       -1.2384  -0.9247  -2.0136
