27

Co      0.0439  -0.0063  0.0267
Cl      -1.1031  1.6476  -1.2334
Cl      1.1072  1.3772  1.3094
C       2.6217  -0.6707  -0.8336
C       2.0901  -1.9172  -0.0795
C       -2.4782  -1.2715  -0.4645
C       -2.3806  -1.1533  1.0656
N       1.4408  0.0913  -1.3097
N       1.0030  -1.4917  0.8599
N       -1.0672  -1.3334  -0.9818
N       -1.4399  -0.0316  1.3333
H       2.9705  -2.4410  0.2908
H       1.5634  -2.5844  -0.7530
H       -2.8484  -0.3726  -0.9530
H       -3.1546  -2.1074  -0.6549
H       1.7205  1.0460  -1.5121
H       1.3269  -0.2951  -2.2503
H       -1.9745  0.8212  1.2274
H       -1.2043  -0.0322  2.3155
H       -1.9285  -2.0207  1.5380
H       -3.3804  -1.0484  1.4705
H       0.5074  -2.3118  1.1657
H       1.5609  -1.2615  1.6944
H       3.3744  -1.0696  -1.5229
H       3.0893  0.0432  -0.1704
H       -0.8573  -2.3226  -0.9524
H       -1.1357  -1.1337  -1.9706
