27

Co      0.0106  0.0687  -0.0011
Cl      -1.0564  1.5631  -1.1844
Cl      1.1226  1.3823  1.3286
C       2.5670  -0.7058  -0.7640
C       2.0718  -1.8679  -0.0867
C       -2.4765  -1.2809  -0.4547
C       -2.3724  -1.1490  1.0416
N       1.4930  0.0726  -1.3707
N       1.1031  -1.5517  0.8539
N       -1.1205  -1.3922  -1.0505
N       -1.4859  -0.0105  1.3995
H       2.9209  -2.4031  0.3222
H       1.6328  -2.5209  -0.8267
H       -2.9282  -0.3932  -0.8628
H       -3.0989  -2.1234  -0.7171
H       1.7779  1.0215  -1.5607
H       1.2158  -0.3218  -2.2550
H       -1.9634  0.8742  1.3985
H       -1.0972  -0.1273  2.3139
H       -1.9538  -2.0421  1.4867
H       -3.3684  -1.0256  1.4513
H       0.5657  -2.3716  1.0771
H       1.4933  -1.2075  1.7142
H       3.2215  -1.1115  -1.5266
H       3.1491  -0.0608  -0.1317
H       -0.7746  -2.3281  -0.9531
H       -1.1620  -1.1783  -2.0330
