27

Co      0.0482  0.0272  0.0300
Cl      -1.0963  1.6136  -1.2360
Cl      1.1064  1.3740  1.2996
C       2.6706  -0.7185  -0.8722
C       2.1354  -1.9056  -0.0628
C       -2.4993  -1.3194  -0.4298
C       -2.4627  -1.1502  1.0839
N       1.5459  0.1211  -1.3606
N       1.0308  -1.5270  0.8793
N       -1.1231  -1.3116  -1.0449
N       -1.5219  -0.0433  1.4303
H       2.9415  -2.3760  0.4689
H       1.7174  -2.6393  -0.7379
H       -3.0264  -0.4933  -0.8693
H       -3.0201  -2.2275  -0.6906
H       1.8004  1.0862  -1.4191
H       1.2367  -0.1468  -2.2768
H       -1.9614  0.8517  1.3437
H       -1.1948  -0.1115  2.3749
H       -2.1187  -2.0477  1.5808
H       -3.4666  -0.9481  1.4416
H       0.4372  -2.3412  1.0384
H       1.4003  -1.2308  1.7790
H       3.2664  -1.1033  -1.6957
H       3.3063  -0.0922  -0.2627
H       -0.7728  -2.2451  -1.1499
H       -1.2053  -0.9105  -1.9659
