27

Co      -0.0018  -0.0218  -0.0047
Cl      -1.1096  1.6608  -1.2479
Cl      1.1840  1.4882  1.3919
C       2.7135  -0.6940  -0.8559
C       2.1755  -2.0131  -0.1140
C       -2.5501  -1.3512  -0.4483
C       -2.4512  -1.1404  1.0692
N       1.4675  0.0696  -1.2927
N       1.0354  -1.5055  0.8997
N       -1.1506  -1.3296  -1.0419
N       -1.4345  -0.0798  1.3361
H       2.9359  -2.5238  0.4596
H       1.7147  -2.7239  -0.7863
H       -3.1064  -0.5524  -0.9198
H       -3.0371  -2.2913  -0.6773
H       1.6471  1.0589  -1.3403
H       1.1647  -0.1980  -2.2104
H       -1.8479  0.8355  1.2575
H       -1.0726  -0.1308  2.2730
H       -2.1240  -2.0522  1.5470
H       -3.4051  -0.8753  1.4960
H       0.5007  -2.2776  1.2497
H       1.4885  -1.0747  1.6871
H       3.4142  -0.8289  -1.6811
H       3.1856  -0.0665  -0.1094
H       -0.7891  -2.2635  -1.1129
H       -1.2171  -0.9598  -1.9725
