27

Co      0.0463  -0.0014  0.0218
Cl      -1.1055  1.6501  -1.2358
Cl      1.1097  1.3797  1.3143
C       2.6172  -0.6728  -0.8183
C       2.0806  -1.9033  -0.0927
C       -2.4635  -1.2624  -0.4485
C       -2.3810  -1.1509  1.0664
N       1.4810  0.0994  -1.3716
N       1.0355  -1.5375  0.9152
N       -1.0811  -1.3883  -1.0354
N       -1.4879  -0.0120  1.3988
H       2.8875  -2.4484  0.3608
H       1.6069  -2.5623  -0.8096
H       -2.8891  -0.3579  -0.8549
H       -3.0884  -2.0969  -0.7400
H       1.6955  1.0698  -1.4921
H       1.1840  -0.2416  -2.2693
H       -1.9503  0.8701  1.2672
H       -1.1678  -0.0259  2.3469
H       -1.9602  -2.0472  1.5007
H       -3.3711  -1.0255  1.4823
H       0.4719  -2.3452  1.1322
H       1.4454  -1.2161  1.7781
H       3.2980  -0.9852  -1.5948
H       3.1483  -0.0311  -0.1419
H       -0.7751  -2.3395  -1.0177
H       -1.1128  -1.0936  -1.9918
