27

Co      0.0703  0.0202  0.0057
Cl      -1.0739  1.5752  -1.1962
Cl      1.1190  1.3886  1.3138
C       2.5758  -0.6961  -0.8851
C       2.1140  -1.8966  -0.0871
C       -2.5135  -1.2832  -0.4347
C       -2.3849  -1.1097  1.0516
N       1.4365  0.0981  -1.1822
N       1.0013  -1.4594  0.8629
N       -1.1547  -1.3591  -1.0887
N       -1.4569  -0.0462  1.3219
H       3.0772  -2.2058  0.3717
H       1.6746  -2.7492  -0.6258
H       -2.9934  -0.4888  -0.9914
H       -3.1474  -2.1982  -0.4531
H       1.7665  1.0470  -1.3197
H       1.2421  -0.1870  -2.1293
H       -1.9713  0.8134  1.1911
H       -1.2578  -0.0484  2.3149
H       -1.9400  -1.9893  1.4960
H       -3.3860  -1.0183  1.4584
H       0.5234  -2.2938  1.1638
H       1.5608  -1.2239  1.6929
H       3.3173  -1.0246  -1.6106
H       3.0706  -0.0446  -0.1806
H       -0.9980  -2.3662  -1.2059
H       -1.3267  -1.0557  -2.0435
