27

Co      0.0291  0.0283  0.0631
Cl      -1.0848  1.6213  -1.2407
Cl      1.0980  1.3695  1.2935
C       2.6804  -0.6995  -0.8769
C       2.1148  -1.9000  -0.0689
C       -2.4771  -1.3368  -0.4664
C       -2.4285  -1.1241  1.0635
N       1.4954  0.0743  -1.3247
N       0.9457  -1.4578  0.7838
N       -1.0786  -1.3161  -1.0094
N       -1.4182  -0.0654  1.3920
H       2.9583  -2.3830  0.3984
H       1.6457  -2.6144  -0.7291
H       -2.9287  -0.5196  -1.0154
H       -3.0812  -2.2404  -0.5846
H       1.7857  1.0207  -1.5584
H       1.3499  -0.3301  -2.2514
H       -1.9107  0.8163  1.3990
H       -1.1595  -0.1872  2.3618
H       -2.0837  -2.0016  1.6073
H       -3.4418  -0.9238  1.3957
H       0.3948  -2.2846  0.9861
H       1.4551  -1.3058  1.6856
H       3.3827  -1.1654  -1.5853
H       3.2110  0.0161  -0.2640
H       -0.8381  -2.2908  -1.0774
H       -1.1774  -1.0283  -1.9667
