27

Co      0.0174  -0.0153  0.0055
Cl      -1.0866  1.6058  -1.2226
Cl      1.1057  1.3528  1.2935
C       2.6111  -0.6956  -0.8644
C       2.1167  -1.9026  -0.1081
C       -2.4409  -1.2720  -0.4230
C       -2.3928  -1.0852  1.0732
N       1.4630  0.0752  -1.1822
N       1.0566  -1.4249  0.8792
N       -1.0845  -1.2659  -1.0870
N       -1.4662  -0.0356  1.3792
H       3.0579  -2.2818  0.3127
H       1.6173  -2.6971  -0.6640
H       -2.9633  -0.5068  -0.9884
H       -3.0154  -2.2165  -0.4538
H       1.7651  1.0324  -1.2826
H       1.3194  -0.1954  -2.1515
H       -1.9629  0.8376  1.2768
H       -1.2436  -0.0661  2.3651
H       -1.9876  -1.9637  1.5576
H       -3.4222  -0.9769  1.4094
H       0.6564  -2.2535  1.3152
H       1.6686  -1.0800  1.6264
H       3.3820  -1.0029  -1.5742
H       3.0726  -0.0516  -0.1322
H       -0.8932  -2.2606  -1.2700
H       -1.2792  -0.8921  -2.0141
