27

Co      0.0170  -0.0092  -0.0117
Cl      -1.0573  1.5779  -1.1956
Cl      1.1270  1.4050  1.3331
C       2.5969  -0.6794  -0.8379
C       2.1029  -1.9276  -0.0660
C       -2.4405  -1.2872  -0.4589
C       -2.3816  -1.1157  1.0789
N       1.3953  0.0996  -1.2428
N       0.9788  -1.4517  0.8056
N       -1.0639  -1.3230  -1.0647
N       -1.4322  -0.0117  1.3863
H       2.9835  -2.3808  0.3777
H       1.6277  -2.6549  -0.7075
H       -2.8534  -0.4234  -0.9635
H       -3.1060  -2.1454  -0.5991
H       1.6866  1.0538  -1.4054
H       1.2750  -0.2394  -2.1983
H       -1.9449  0.8562  1.3416
H       -1.1602  -0.0718  2.3517
H       -1.9824  -1.9747  1.6043
H       -3.4073  -0.9769  1.4115
H       0.4810  -2.2511  1.1513
H       1.5210  -1.1673  1.6215
H       3.3057  -1.0473  -1.5702
H       3.0947  0.0242  -0.1880
H       -0.8460  -2.3080  -1.1247
H       -1.2031  -1.0552  -2.0300
