27

Co      -0.0035  0.0127  -0.0039
Cl      -1.1194  1.6495  -1.2319
Cl      1.1944  1.4922  1.3949
C       2.7286  -0.7641  -0.8164
C       2.2043  -1.9663  -0.1258
C       -2.5975  -1.3022  -0.4227
C       -2.4580  -1.2120  1.0565
N       1.5710  0.0351  -1.3184
N       1.1304  -1.5257  0.8225
N       -1.2059  -1.3690  -0.9862
N       -1.5596  -0.0623  1.3261
H       2.8966  -2.4632  0.5673
H       1.8722  -2.7005  -0.8576
H       -3.1509  -0.4347  -0.7489
H       -3.0603  -2.1949  -0.8504
H       1.7492  1.0285  -1.3005
H       1.1010  -0.1833  -2.1941
H       -1.9633  0.8396  1.1376
H       -1.1489  -0.0312  2.2448
H       -2.0520  -2.1436  1.4303
H       -3.3828  -1.0150  1.5786
H       0.5290  -2.2908  1.0768
H       1.3979  -0.9961  1.6538
H       3.2726  -0.9294  -1.7528
H       3.3739  -0.2182  -0.1332
H       -0.7307  -2.2624  -0.9053
H       -1.1737  -1.0541  -1.9384
