27

Co      0.0633  0.0020  0.0063
Cl      -1.1055  1.6501  -1.2358
Cl      1.1097  1.3773  1.3143
C       2.5919  -0.6764  -0.8557
C       2.0848  -1.8958  -0.1197
C       -2.4298  -1.2398  -0.4280
C       -2.3885  -1.1274  1.0766
N       1.4624  0.0604  -1.2663
N       1.0042  -1.4921  0.8863
N       -1.0639  -1.3987  -1.0648
N       -1.5168  -0.0358  1.4219
H       3.0331  -2.2884  0.2755
H       1.5967  -2.6642  -0.7079
H       -2.8137  -0.3729  -0.9597
H       -3.1400  -2.0870  -0.5147
H       1.7586  1.0102  -1.4705
H       1.3015  -0.3079  -2.1997
H       -2.0429  0.8155  1.2793
H       -1.3253  -0.0393  2.4223
H       -1.9345  -2.0060  1.5172
H       -3.4298  -1.0985  1.4184
H       0.5371  -2.3371  1.1801
H       1.5764  -1.2756  1.7176
H       3.4285  -0.9901  -1.5061
H       2.9876  -0.0018  -0.0981
H       -0.9275  -2.4160  -1.1272
H       -1.2129  -1.1435  -2.0332
