27

Co      0.0188  0.0322  -0.0099
Cl      -1.0528  1.5680  -1.2022
Cl      1.1280  1.4061  1.3351
C       2.6375  -0.7007  -0.8434
C       2.1243  -1.9407  -0.0724
C       -2.4544  -1.3271  -0.4497
C       -2.4509  -1.1304  1.0900
N       1.4340  0.0691  -1.2695
N       0.9724  -1.4462  0.7640
N       -1.0677  -1.2917  -1.0352
N       -1.4607  -0.0580  1.4250
H       2.9873  -2.3864  0.4091
H       1.6731  -2.6762  -0.7177
H       -2.9063  -0.4977  -0.9784
H       -3.0625  -2.2187  -0.5934
H       1.7400  1.0150  -1.4884
H       1.3054  -0.3150  -2.2084
H       -1.9593  0.8211  1.4396
H       -1.1738  -0.1801  2.3849
H       -2.1195  -1.9996  1.6553
H       -3.4895  -0.9359  1.3717
H       0.4433  -2.2420  1.0728
H       1.4989  -1.1932  1.6040
H       3.3611  -1.0759  -1.5619
H       3.1242  0.0094  -0.1889
H       -0.8128  -2.2628  -1.1075
H       -1.2181  -1.0181  -1.9978
