27

Co      0.0732  0.0282  0.0182
Cl      -1.1013  1.6381  -1.2351
Cl      1.0984  1.3457  1.2988
C       2.5325  -0.6808  -0.7555
C       2.0565  -1.8836  -0.0748
C       -2.4632  -1.3045  -0.4596
C       -2.3872  -1.1270  1.0644
N       1.4145  0.0790  -1.2762
N       1.1242  -1.4982  0.8706
N       -1.1125  -1.3858  -1.1033
N       -1.4656  -0.0106  1.4102
H       2.9947  -2.4496  0.1662
H       1.4864  -2.4884  -0.7777
H       -2.8543  -0.4166  -0.9461
H       -3.1834  -2.1335  -0.5812
H       1.7524  1.0109  -1.5765
H       1.2914  -0.3849  -2.1893
H       -1.9897  0.8555  1.3972
H       -1.2004  -0.1165  2.3774
H       -1.9836  -1.9841  1.5950
H       -3.4309  -1.0129  1.3774
H       0.6444  -2.3126  1.2087
H       1.7026  -1.2364  1.6758
H       3.2710  -1.1411  -1.4319
H       3.0362  0.0265  -0.1187
H       -0.9243  -2.3812  -1.1639
H       -1.2628  -1.1199  -2.0670
