27

Co      0.0082  0.0638  0.0038
Cl      -1.0539  1.5606  -1.1820
Cl      1.1202  1.3798  1.3237
C       2.5670  -0.7083  -0.7566
C       2.0767  -1.8728  -0.0916
C       -2.4913  -1.2809  -0.4571
C       -2.3675  -1.1515  1.0318
N       1.4709  0.0554  -1.3314
N       1.0932  -1.5149  0.8121
N       -1.1156  -1.3553  -1.0014
N       -1.4516  -0.0301  1.3430
H       2.9086  -2.3958  0.3565
H       1.6573  -2.5430  -0.8292
H       -2.9601  -0.4080  -0.8702
H       -3.0743  -2.1430  -0.7319
H       1.7484  1.0068  -1.5263
H       1.1863  -0.3390  -2.2133
H       -1.9242  0.8571  1.3224
H       -1.0702  -0.1200  2.2599
H       -1.9538  -2.0519  1.4696
H       -3.3414  -0.9986  1.4759
H       0.5559  -2.3200  1.0697
H       1.4909  -1.1486  1.6578
H       3.2117  -1.0869  -1.5364
H       3.1491  -0.0681  -0.1194
H       -0.7525  -2.2840  -0.8697
H       -1.1350  -1.1685  -1.9938
