27

Co      -0.0012  -0.0010  0.0010
Cl      -1.0872  1.6107  -1.2143
Cl      1.1560  1.4381  1.3581
C       2.6933  -0.7003  -0.8375
C       2.1488  -1.9663  -0.1101
C       -2.5392  -1.3076  -0.4486
C       -2.4206  -1.1564  1.0599
N       1.4801  0.0651  -1.2941
N       1.0416  -1.4652  0.8532
N       -1.1340  -1.3007  -0.9976
N       -1.4543  -0.0566  1.3118
H       2.9074  -2.4828  0.4575
H       1.7014  -2.6730  -0.7964
H       -3.0651  -0.4768  -0.8852
H       -3.0426  -2.2212  -0.7220
H       1.6813  1.0471  -1.3673
H       1.1839  -0.2242  -2.2066
H       -1.9013  0.8377  1.1940
H       -1.1102  -0.0619  2.2526
H       -2.0288  -2.0624  1.5006
H       -3.3711  -0.9528  1.5249
H       0.5066  -2.2364  1.2038
H       1.4849  -1.0339  1.6436
H       3.3666  -0.9036  -1.6602
H       3.2059  -0.0743  -0.1242
H       -0.7686  -2.2322  -0.9952
H       -1.1701  -0.9918  -1.9498
