27

Co      0.0278  0.0266  0.0186
Cl      -1.0917  1.6061  -1.2162
Cl      1.1232  1.3805  1.3184
C       2.6561  -0.6994  -0.8127
C       2.1184  -1.9272  -0.1013
C       -2.5350  -1.3030  -0.4481
C       -2.4126  -1.1557  1.0543
N       1.4945  0.0762  -1.3145
N       1.0912  -1.4781  0.8827
N       -1.1456  -1.3138  -1.0197
N       -1.4743  -0.0403  1.3332
H       2.9068  -2.4784  0.3816
H       1.6378  -2.5942  -0.8064
H       -3.0528  -0.4617  -0.8720
H       -3.0628  -2.2025  -0.7136
H       1.7260  1.0457  -1.4361
H       1.1921  -0.2552  -2.2116
H       -1.9331  0.8489  1.2263
H       -1.1377  -0.0638  2.2743
H       -2.0067  -2.0575  1.4947
H       -3.3763  -0.9794  1.5087
H       0.5537  -2.2600  1.2038
H       1.5377  -1.0746  1.6840
H       3.3187  -0.9786  -1.6188
H       3.2025  -0.0746  -0.1287
H       -0.7937  -2.2486  -1.0274
H       -1.1899  -0.9945  -1.9677
