27

Co      -0.0246  -0.0104  -0.0182
Cl      -1.0931  1.6285  -1.2257
Cl      1.1755  1.4690  1.3822
C       2.6521  -0.7165  -0.8038
C       2.1472  -1.9502  -0.1044
C       -2.5292  -1.3202  -0.4341
C       -2.4313  -1.1502  1.0570
N       1.5048  0.0734  -1.3326
N       1.1056  -1.5485  0.8910
N       -1.1400  -1.2918  -1.0025
N       -1.4571  -0.0663  1.3267
H       2.9173  -2.4624  0.4524
H       1.7408  -2.6526  -0.8195
H       -3.1179  -0.5134  -0.8425
H       -2.9643  -2.2595  -0.7576
H       1.7003  1.0610  -1.3192
H       1.1626  -0.1565  -2.2468
H       -1.8530  0.8549  1.2528
H       -1.0292  -0.1216  2.2333
H       -2.0945  -2.0725  1.5084
H       -3.3781  -0.8900  1.5069
H       0.5864  -2.3396  1.2102
H       1.4644  -1.0405  1.6878
H       3.2727  -0.9342  -1.6623
H       3.2291  -0.1265  -0.1140
H       -0.6900  -2.1908  -0.9852
H       -1.1619  -0.9567  -1.9451
