27

Co      0.0290  0.0293  0.0159
Cl      -1.0929  1.6073  -1.2174
Cl      1.1244  1.3818  1.3208
C       2.6209  -0.7091  -0.8210
C       2.1017  -1.8837  -0.1026
C       -2.5150  -1.2942  -0.4374
C       -2.4110  -1.1427  1.0527
N       1.5205  0.0682  -1.3094
N       1.1012  -1.4977  0.8854
N       -1.1462  -1.3251  -1.0406
N       -1.4942  -0.0458  1.3521
H       2.9930  -2.3716  0.2898
H       1.6097  -2.5851  -0.7599
H       -3.0130  -0.4713  -0.9218
H       -3.0936  -2.1969  -0.5946
H       1.8169  1.0216  -1.4628
H       1.3150  -0.2751  -2.2319
H       -1.9873  0.8280  1.2708
H       -1.2067  -0.0928  2.3116
H       -1.9856  -2.0316  1.5027
H       -3.4075  -1.0231  1.4607
H       0.6315  -2.3292  1.2001
H       1.6082  -1.1701  1.6942
H       3.3451  -1.0903  -1.5415
H       3.1425  -0.0617  -0.1395
H       -0.8752  -2.2915  -1.0812
H       -1.2473  -1.0316  -1.9962
