27

Co      -0.0126  -0.0345  0.0041
Cl      -1.0969  1.6309  -1.2241
Cl      1.1657  1.4578  1.3721
C       2.6671  -0.7057  -0.8172
C       2.1204  -1.9143  -0.1073
C       -2.5233  -1.2980  -0.4378
C       -2.4084  -1.1510  1.0543
N       1.5233  0.0755  -1.3548
N       1.0705  -1.5056  0.8786
N       -1.1367  -1.3100  -1.0095
N       -1.4658  -0.0444  1.3222
H       2.8616  -2.4538  0.4606
H       1.7005  -2.6010  -0.8318
H       -3.0824  -0.4670  -0.8293
H       -2.9928  -2.2145  -0.7689
H       1.6983  1.0668  -1.3462
H       1.1761  -0.1663  -2.2640
H       -1.8701  0.8664  1.1839
H       -1.0775  -0.0480  2.2446
H       -2.0327  -2.0680  1.4841
H       -3.3527  -0.9307  1.5246
H       0.5332  -2.2958  1.1706
H       1.4234  -1.0256  1.6917
H       3.2808  -0.9588  -1.6688
H       3.2559  -0.1119  -0.1410
H       -0.7189  -2.2213  -1.0148
H       -1.1452  -0.9491  -1.9439
