27

Co      0.0364  0.0185  0.0004
Cl      -1.0934  1.6148  -1.2186
Cl      1.1514  1.4311  1.3548
C       2.6478  -0.7057  -0.8296
C       2.1350  -1.9453  -0.0863
C       -2.5370  -1.3211  -0.4507
C       -2.4303  -1.1566  1.0687
N       1.4707  0.0823  -1.2893
N       1.0656  -1.4950  0.8580
N       -1.1609  -1.3616  -1.0645
N       -1.4884  -0.0387  1.3633
H       2.9798  -2.4514  0.3627
H       1.6511  -2.6364  -0.7603
H       -2.9991  -0.4624  -0.9126
H       -3.1523  -2.1937  -0.6438
H       1.7470  1.0416  -1.4427
H       1.2546  -0.2583  -2.2103
H       -1.9789  0.8363  1.2876
H       -1.1875  -0.0861  2.3209
H       -2.0246  -2.0349  1.5507
H       -3.4249  -1.0027  1.4643
H       0.5396  -2.2902  1.1705
H       1.5571  -1.1657  1.6754
H       3.3378  -1.0321  -1.5944
H       3.1716  -0.0400  -0.1616
H       -0.8868  -2.3282  -1.1134
H       -1.2642  -1.0625  -2.0198
