27

Co      0.0039  0.0163  -0.0015
Cl      -1.0745  1.5900  -1.2038
Cl      1.1385  1.4056  1.3453
C       2.6152  -0.7001  -0.7979
C       2.0779  -1.8717  -0.1228
C       -2.4810  -1.2829  -0.4309
C       -2.4045  -1.1348  1.0528
N       1.5234  0.0469  -1.3478
N       1.0845  -1.4882  0.8721
N       -1.1177  -1.3249  -1.0394
N       -1.4946  -0.0460  1.3769
H       2.9088  -2.3795  0.3400
H       1.6238  -2.5631  -0.8140
H       -3.0109  -0.4633  -0.8800
H       -3.0132  -2.1923  -0.6525
H       1.7659  1.0120  -1.4737
H       1.2461  -0.2957  -2.2487
H       -1.9416  0.8494  1.2960
H       -1.1497  -0.1045  2.3127
H       -2.0144  -2.0424  1.4923
H       -3.3943  -0.9841  1.4576
H       0.5921  -2.3040  1.1787
H       1.5201  -1.0854  1.6783
H       3.3335  -1.0124  -1.5444
H       3.1272  -0.0797  -0.0864
H       -0.7808  -2.2658  -1.0581
H       -1.1902  -1.0087  -1.9866
