27

Co      -0.0232  -0.0022  -0.0107
Cl      -1.0712  1.5862  -1.1971
Cl      1.1710  1.4566  1.3768
C       2.6769  -0.7104  -0.7984
C       2.1421  -1.9577  -0.0873
C       -2.5414  -1.3227  -0.4616
C       -2.4150  -1.1630  1.0599
N       1.4682  0.0719  -1.3089
N       1.0740  -1.4657  0.8123
N       -1.1443  -1.2935  -1.0087
N       -1.4458  -0.0333  1.3139
H       2.8875  -2.5368  0.4432
H       1.6856  -2.6052  -0.8267
H       -3.0510  -0.4641  -0.8645
H       -3.0652  -2.2121  -0.7743
H       1.6872  1.0491  -1.3937
H       1.2125  -0.2362  -2.2265
H       -1.9004  0.8613  1.2510
H       -1.0585  -0.0748  2.2365
H       -2.0285  -2.0527  1.5380
H       -3.3711  -0.9417  1.5087
H       0.5392  -2.2264  1.1826
H       1.4996  -1.0010  1.5956
H       3.2927  -0.9973  -1.6351
H       3.2502  -0.0640  -0.1537
H       -0.7489  -2.2145  -0.9808
H       -1.1757  -1.0043  -1.9676
