27

Co      0.0000  -0.0059  0.0000
Cl      -1.0774  1.5920  -1.2041
Cl      1.1451  1.4234  1.3453
C       2.6389  -0.7070  -0.8481
C       2.1217  -1.9030  -0.1054
C       -2.5036  -1.2819  -0.4321
C       -2.3949  -1.1297  1.0527
N       1.5062  0.0795  -1.2921
N       1.0444  -1.4872  0.8707
N       -1.1302  -1.3128  -1.0355
N       -1.4687  -0.0426  1.3337
H       2.9462  -2.3372  0.4404
H       1.7098  -2.6702  -0.7506
H       -3.0489  -0.4765  -0.8888
H       -3.0160  -2.2084  -0.6452
H       1.7384  1.0559  -1.3197
H       1.2095  -0.1630  -2.2186
H       -1.9120  0.8507  1.2092
H       -1.1383  -0.0553  2.2765
H       -1.9908  -2.0368  1.4784
H       -3.3628  -0.9673  1.4977
H       0.5419  -2.2994  1.1721
H       1.4667  -1.0815  1.6853
H       3.3029  -0.9789  -1.6543
H       3.1920  -0.1018  -0.1519
H       -0.7948  -2.2541  -1.0737
H       -1.1989  -0.9761  -1.9779
