27

Co      -0.0017  0.0108  -0.0049
Cl      -1.0994  1.6337  -1.2252
Cl      1.1728  1.4658  1.3792
C       2.7120  -0.7130  -0.8398
C       2.1683  -1.9826  -0.1157
C       -2.5473  -1.3094  -0.4463
C       -2.4398  -1.1776  1.0658
N       1.5019  0.0521  -1.3168
N       1.0476  -1.5032  0.8485
N       -1.1420  -1.3447  -0.9951
N       -1.4908  -0.0628  1.3398
H       2.9326  -2.4937  0.4528
H       1.7339  -2.6889  -0.8082
H       -3.0374  -0.4513  -0.8754
H       -3.0880  -2.1971  -0.7363
H       1.7114  1.0315  -1.4088
H       1.2079  -0.2522  -2.2244
H       -1.9484  0.8249  1.2309
H       -1.1433  -0.0787  2.2817
H       -2.0388  -2.0824  1.5001
H       -3.3989  -0.9968  1.5204
H       0.5015  -2.2836  1.1626
H       1.4757  -1.0993  1.6609
H       3.3994  -0.9170  -1.6493
H       3.2119  -0.0798  -0.1209
H       -0.7826  -2.2809  -0.9560
H       -1.1715  -1.0752  -1.9608
