27

Co      -0.0237  0.0083  -0.0168
Cl      -1.0879  1.6061  -1.2066
Cl      1.1908  1.4843  1.3964
C       2.7005  -0.7353  -0.8246
C       2.1716  -1.9587  -0.1085
C       -2.5607  -1.3112  -0.4429
C       -2.4353  -1.1785  1.0607
N       1.5233  0.0511  -1.3061
N       1.0913  -1.4978  0.8239
N       -1.1731  -1.3319  -1.0137
N       -1.5054  -0.0487  1.3280
H       2.9543  -2.4660  0.4410
H       1.7469  -2.6653  -0.8049
H       -3.0686  -0.4585  -0.8609
H       -3.0988  -2.2026  -0.7252
H       1.7614  1.0272  -1.3698
H       1.2561  -0.2269  -2.2279
H       -1.9716  0.8349  1.2332
H       -1.1423  -0.0714  2.2630
H       -2.0169  -2.0741  1.4979
H       -3.3970  -1.0119  1.5175
H       0.5781  -2.2861  1.1678
H       1.5130  -1.0521  1.6185
H       3.3498  -1.0031  -1.6413
H       3.2546  -0.1076  -0.1443
H       -0.8037  -2.2658  -0.9818
H       -1.2173  -1.0592  -1.9784
