27

Co      -0.0058  -0.0252  -0.0054
Cl      -1.1080  1.6526  -1.2338
Cl      1.1813  1.4830  1.3908
C       2.6831  -0.7198  -0.8210
C       2.1495  -1.9460  -0.1088
C       -2.5303  -1.3019  -0.4399
C       -2.4322  -1.1734  1.0672
N       1.5080  0.0512  -1.3186
N       1.0626  -1.5025  0.8269
N       -1.1352  -1.3375  -0.9972
N       -1.4928  -0.0555  1.3368
H       2.9283  -2.4598  0.4355
H       1.7234  -2.6437  -0.8142
H       -3.0162  -0.4379  -0.8588
H       -3.0785  -2.1835  -0.7382
H       1.7251  1.0307  -1.3832
H       1.2425  -0.2345  -2.2395
H       -1.9439  0.8327  1.2106
H       -1.1506  -0.0594  2.2812
H       -2.0365  -2.0723  1.5167
H       -3.3997  -0.9910  1.5021
H       0.5374  -2.2948  1.1413
H       1.4768  -1.0846  1.6405
H       3.3421  -0.9926  -1.6268
H       3.2252  -0.0863  -0.1399
H       -0.7813  -2.2761  -0.9769
H       -1.1714  -1.0526  -1.9577
