27

Co      0.0041  0.0303  0.0020
Cl      -1.0757  1.5833  -1.1973
Cl      1.1417  1.4096  1.3406
C       2.6612  -0.7061  -0.8309
C       2.1345  -1.9388  -0.0897
C       -2.5332  -1.2988  -0.4575
C       -2.4035  -1.1593  1.0565
N       1.4849  0.0803  -1.2993
N       1.0650  -1.4858  0.8523
N       -1.1418  -1.3199  -1.0177
N       -1.4698  -0.0317  1.3272
H       2.9716  -2.4540  0.3624
H       1.6505  -2.6281  -0.7670
H       -2.9990  -0.4409  -0.9151
H       -3.1250  -2.1771  -0.6711
H       1.7590  1.0417  -1.4377
H       1.2866  -0.2521  -2.2280
H       -1.9768  0.8366  1.2573
H       -1.1549  -0.0660  2.2773
H       -1.9597  -2.0395  1.5077
H       -3.3812  -1.0276  1.4990
H       0.5660  -2.2862  1.1951
H       1.5642  -1.1335  1.6539
H       3.3539  -1.0408  -1.5921
H       3.1835  -0.0408  -0.1620
H       -0.8415  -2.2767  -0.9952
H       -1.2092  -1.0754  -1.9915
