27

Co      0.0044  0.0165  -0.0016
Cl      -1.0833  1.5992  -1.2049
Cl      1.1493  1.4227  1.3504
C       2.6094  -0.7167  -0.8136
C       2.1123  -1.8880  -0.1074
C       -2.5131  -1.2818  -0.4350
C       -2.3864  -1.1390  1.0431
N       1.5152  0.0687  -1.3049
N       1.1022  -1.5228  0.8796
N       -1.1552  -1.3593  -1.0550
N       -1.4877  -0.0335  1.3441
H       2.9689  -2.3471  0.3677
H       1.6859  -2.6209  -0.7758
H       -3.0318  -0.4524  -0.8778
H       -3.0715  -2.1816  -0.6436
H       1.7771  1.0350  -1.3797
H       1.2260  -0.2146  -2.2192
H       -1.9465  0.8539  1.2499
H       -1.1438  -0.0731  2.2809
H       -1.9602  -2.0416  1.4595
H       -3.3614  -1.0086  1.4892
H       0.6131  -2.3473  1.1717
H       1.5250  -1.1229  1.6959
H       3.2776  -1.0334  -1.5993
H       3.1732  -0.1077  -0.1302
H       -0.8296  -2.3052  -1.0521
H       -1.2231  -1.0644  -2.0110
