27

Co      0.0027  0.0074  0.0041
Cl      -1.0709  1.5755  -1.1994
Cl      1.1352  1.4009  1.3345
C       2.6216  -0.7135  -0.8184
C       2.0971  -1.8688  -0.1071
C       -2.4993  -1.2915  -0.4274
C       -2.4083  -1.1283  1.0511
N       1.5254  0.0644  -1.3093
N       1.0804  -1.4673  0.8540
N       -1.1343  -1.2838  -1.0343
N       -1.4803  -0.0484  1.3450
H       2.9277  -2.3369  0.3955
H       1.6686  -2.6019  -0.7744
H       -3.0690  -0.5012  -0.8834
H       -2.9886  -2.2308  -0.6380
H       1.7769  1.0323  -1.3786
H       1.2425  -0.2190  -2.2265
H       -1.9203  0.8492  1.2472
H       -1.1429  -0.0894  2.2832
H       -2.0251  -2.0351  1.4982
H       -3.3874  -0.9525  1.4695
H       0.5887  -2.2807  1.1674
H       1.5074  -1.0504  1.6592
H       3.2852  -1.0449  -1.6039
H       3.1914  -0.1065  -0.1402
H       -0.7852  -2.2191  -1.0911
H       -1.2154  -0.9308  -1.9701
