27

Co      0.0253  0.0165  0.0222
Cl      -1.0936  1.6276  -1.2244
Cl      1.1301  1.4007  1.3286
C       2.6359  -0.6979  -0.8356
C       2.1186  -1.9191  -0.1156
C       -2.4997  -1.2863  -0.4500
C       -2.3831  -1.1310  1.0469
N       1.4681  0.0481  -1.2577
N       1.0364  -1.4695  0.8417
N       -1.1219  -1.3763  -1.0433
N       -1.4522  -0.0463  1.3456
H       2.9722  -2.3741  0.3663
H       1.6612  -2.6567  -0.7600
H       -2.9621  -0.4488  -0.9451
H       -3.1135  -2.1734  -0.5962
H       1.7280  1.0085  -1.4319
H       1.2232  -0.3059  -2.1672
H       -1.9365  0.8313  1.2520
H       -1.1745  -0.0812  2.3101
H       -1.9594  -2.0259  1.4834
H       -3.3669  -1.0056  1.4720
H       0.5324  -2.2790  1.1535
H       1.5409  -1.1575  1.6605
H       3.3681  -0.9791  -1.5824
H       3.1176  -0.0499  -0.1193
H       -0.8725  -2.3503  -1.0524
H       -1.2052  -1.1109  -2.0086
