27

Co      0.0273  0.0308  0.0144
Cl      -1.0929  1.6091  -1.2156
Cl      1.1279  1.3923  1.3243
C       2.6602  -0.7046  -0.8400
C       2.1322  -1.9328  -0.0827
C       -2.5277  -1.2971  -0.4537
C       -2.4120  -1.1632  1.0637
N       1.4982  0.0945  -1.3176
N       1.0673  -1.5094  0.8793
N       -1.1401  -1.3406  -1.0298
N       -1.4916  -0.0269  1.3552
H       2.9798  -2.4506  0.3472
H       1.6387  -2.6164  -0.7599
H       -2.9761  -0.4263  -0.9067
H       -3.1414  -2.1619  -0.6703
H       1.7767  1.0537  -1.4578
H       1.2913  -0.2385  -2.2438
H       -2.0002  0.8381  1.2702
H       -1.1935  -0.0585  2.3126
H       -1.9681  -2.0415  1.5182
H       -3.4009  -1.0441  1.4887
H       0.5516  -2.3193  1.1754
H       1.5577  -1.1964  1.7056
H       3.3475  -1.0646  -1.5975
H       3.1958  -0.0388  -0.1832
H       -0.8569  -2.3035  -1.0309
H       -1.2126  -1.0751  -1.9964
