27

Co      -0.0364  -0.0215  0.0011
Cl      -1.0879  1.6061  -1.2110
Cl      1.1660  1.4475  1.3647
C       2.7012  -0.7237  -0.8342
C       2.1518  -1.9307  -0.1010
C       -2.5374  -1.2986  -0.4420
C       -2.4169  -1.1597  1.0582
N       1.5335  0.0701  -1.3150
N       1.0804  -1.4733  0.8415
N       -1.1387  -1.2556  -0.9822
N       -1.4700  -0.0445  1.2988
H       2.9259  -2.4549  0.4385
H       1.7081  -2.6300  -0.7957
H       -3.0827  -0.4750  -0.8681
H       -3.0178  -2.2219  -0.7296
H       1.7541  1.0532  -1.3230
H       1.2874  -0.1693  -2.2559
H       -1.9244  0.8449  1.1819
H       -1.1143  -0.0436  2.2350
H       -2.0050  -2.0577  1.5005
H       -3.3697  -0.9715  1.5260
H       0.5951  -2.2689  1.2106
H       1.5125  -1.0066  1.6212
H       3.3339  -1.0267  -1.6546
H       3.2786  -0.1015  -0.1723
H       -0.7515  -2.1807  -0.9807
H       -1.1709  -0.9418  -1.9325
