27

Co      0.0000  0.0032  -0.0017
Cl      -1.0839  1.6150  -1.2170
Cl      1.1542  1.4393  1.3620
C       2.6134  -0.7133  -0.8037
C       2.1032  -1.8878  -0.1178
C       -2.4953  -1.2942  -0.4312
C       -2.4095  -1.1374  1.0479
N       1.5059  0.0393  -1.3124
N       1.0680  -1.5012  0.8350
N       -1.1210  -1.3285  -1.0118
N       -1.4674  -0.0682  1.3443
H       2.9367  -2.3471  0.3931
H       1.6968  -2.6217  -0.7972
H       -3.0288  -0.4834  -0.8915
H       -3.0131  -2.2144  -0.6544
H       1.7499  1.0070  -1.4146
H       1.2228  -0.2736  -2.2200
H       -1.9027  0.8326  1.2635
H       -1.1204  -0.1227  2.2803
H       -2.0400  -2.0502  1.4932
H       -3.3855  -0.9506  1.4641
H       0.5680  -2.3183  1.1256
H       1.4842  -1.1055  1.6575
H       3.3040  -1.0134  -1.5752
H       3.1463  -0.0958  -0.1050
H       -0.7753  -2.2661  -1.0028
H       -1.1813  -1.0397  -1.9692
