27

Co      -0.0341  -0.0129  -0.0002
Cl      -1.0919  1.6293  -1.2266
Cl      1.1742  1.4667  1.3777
C       2.6720  -0.7176  -0.8167
C       2.1520  -1.9489  -0.1029
C       -2.5376  -1.3289  -0.4493
C       -2.4187  -1.1431  1.0483
N       1.4961  0.0590  -1.3027
N       1.0810  -1.5079  0.8478
N       -1.1402  -1.2850  -0.9923
N       -1.4217  -0.0699  1.2971
H       2.9422  -2.4628  0.4246
H       1.7170  -2.6491  -0.8016
H       -3.0976  -0.5280  -0.9050
H       -3.0098  -2.2690  -0.7016
H       1.7169  1.0388  -1.3469
H       1.2372  -0.2092  -2.2310
H       -1.8516  0.8387  1.2474
H       -1.0371  -0.1309  2.2207
H       -2.0620  -2.0510  1.5156
H       -3.3672  -0.8973  1.4990
H       0.5906  -2.3053  1.2020
H       1.5128  -1.0570  1.6367
H       3.3233  -0.9877  -1.6326
H       3.2235  -0.0903  -0.1387
H       -0.7467  -2.2062  -0.9774
H       -1.1765  -0.9871  -1.9470
