27

Co      0.0000  0.0000  0.0000
Cl      -0.0262  -2.2103  -0.1660
Cl      0.0048  2.4092  0.3030
N       -1.4642  0.1679  -1.3534
N       -1.4987  -0.0458  1.2202
N       1.4192  0.0972  -1.3264
N       1.2898  -0.1138  1.3860
C       -2.7826  0.4652  -0.5628
C       -2.7891  -0.3906  0.6506
C       2.6061  0.4633  -0.6927
C       2.7254  -0.3254  0.6370
H       -1.1267  0.7203  -2.2014
H       -3.2840  1.5006  -0.3078
H       -3.5614  0.0725  -1.1966
H       -3.9823  -0.0038  0.7633
H       -2.8829  -1.4240  0.3891
H       -1.2986  0.6850  1.9777
H       -1.0468  -0.9162  1.6471
H       1.3162  -0.6654  -2.0272
H       1.4686  0.7878  -2.1208
H       3.6413  0.5659  -1.2079
H       2.9042  1.5478  -0.5846
H       2.4882  -1.3676  0.3291
H       3.6584  0.3292  0.9571
H       1.2538  -1.0611  1.8275
H       1.5877  0.8114  1.7648
H       -1.6630  -0.7900  -1.6977
