27

Co      0.0000  0.0000  0.0000
Cl      -0.0507  -2.3384  -0.2429
Cl      0.0039  2.1788  0.1988
N       -1.5285  0.0645  -1.2158
N       -1.5504  -0.1460  1.4884
N       1.4386  0.1596  -1.4418
N       1.4923  -0.2933  1.4746
C       -2.8599  0.2591  -0.8072
C       -2.7421  -0.4082  0.6081
C       2.6151  0.3132  -0.5203
C       2.6558  -0.4288  0.5830
H       -1.4664  0.8502  -1.8321
H       -2.7962  1.2311  -0.1890
H       -3.4432  -0.0404  -1.7312
H       -3.8643  -0.5395  1.0322
H       -2.7425  -1.5338  0.7107
H       -1.5959  0.7552  1.9204
H       -1.2317  -0.8443  2.1378
H       1.0685  -0.7463  -1.9242
H       1.3097  1.0118  -1.9657
H       3.3749  0.1991  -1.3234
H       3.0515  1.4143  -0.5972
H       2.8542  -1.5233  0.6270
H       3.4972  -0.1257  1.1730
H       1.7505  -0.9586  2.3316
H       1.4385  0.5714  1.9822
H       -1.8253  -0.8178  -1.6720
