27

Co      0.0000  0.0000  0.0000
Cl      -0.0656  -2.2501  -0.1093
Cl      -0.0490  2.2443  0.3773
N       -1.4127  0.1486  -1.1943
N       -1.5860  -0.0704  1.4864
N       1.3857  0.0429  -1.2061
N       1.4319  -0.1024  1.2996
C       -3.0607  0.4476  -0.6877
C       -2.7613  -0.3907  0.7620
C       2.7534  0.3362  -0.5520
C       2.7897  -0.2321  0.7736
H       -1.1333  1.0071  -1.7083
H       -2.6136  1.5205  -0.4361
H       -3.7789  0.1079  -1.4401
H       -3.8387  -0.4926  1.2245
H       -3.0502  -1.4412  0.4946
H       -1.2073  0.8974  1.8529
H       -1.5437  -0.8264  2.1623
H       1.3077  -0.7264  -1.9041
H       1.2323  0.6307  -2.0698
H       3.7405  0.4046  -1.1138
H       2.3401  1.3937  -0.2724
H       2.7640  -1.2014  0.1511
H       3.6638  0.1669  1.2723
H       0.9524  -1.0036  1.6729
H       1.9130  0.8338  1.6126
H       -1.6458  -0.4399  -2.1497
