27

Co      0.0000  0.0000  0.0000
Cl      0.0001  -2.4497  -0.1053
Cl      0.0094  2.2319  0.3253
N       -1.3730  0.1025  -1.2087
N       -1.3659  -0.2229  1.3806
N       1.5120  0.0859  -1.2121
N       1.5253  -0.1089  1.5022
C       -2.7828  0.4793  -0.4495
C       -2.6761  -0.6109  0.6229
C       2.9476  0.3957  -0.6652
C       2.8245  -0.4390  0.7426
H       -1.2215  0.6179  -2.1396
H       -2.9695  1.6446  -0.7441
H       -3.7304  0.4653  -1.0719
H       -3.6511  0.1129  0.8761
H       -3.0283  -1.7252  0.7791
H       -1.5471  0.6671  1.8362
H       -1.0913  -0.8489  2.1540
H       1.2484  -0.7090  -1.8895
H       1.2754  1.0770  -1.5391
H       3.8553  0.2139  -1.2464
H       3.5806  1.3816  -0.2034
H       2.5775  -1.4754  0.3925
H       3.6268  -0.5226  1.5550
H       1.8721  -0.9160  2.2202
H       1.9967  0.8165  1.8645
H       -1.3209  -0.7618  -1.7411
