27

Co      0.0000  0.0000  0.0000
Cl      0.0129  -2.1769  -0.2569
Cl      -0.0190  2.2636  0.1760
N       -1.5241  0.0463  -1.4001
N       -1.5406  -0.1814  1.2319
N       1.4030  0.1049  -1.4478
N       1.5966  -0.0986  1.3297
C       -2.7086  0.3309  -0.5641
C       -2.7527  -0.2955  0.6329
C       2.8116  0.4005  -0.6358
C       2.6113  -0.4525  0.6745
H       -1.3131  1.1415  -1.6242
H       -3.0218  1.3875  -0.4145
H       -3.2977  0.2925  -1.5970
H       -3.6588  -0.2877  1.2733
H       -3.4972  -1.2810  0.2420
H       -1.9963  0.6580  1.7494
H       -1.8615  -0.9853  1.9350
H       1.6345  -0.4771  -2.4242
H       1.3801  0.6483  -2.4151
H       3.6520  0.2679  -1.3020
H       2.3577  1.4686  -0.2971
H       2.3880  -1.5609  0.7174
H       3.8937  -0.2870  0.7906
H       1.6068  -1.0584  1.7705
H       1.4581  0.7320  1.8959
H       -1.6829  -0.7020  -2.0827
