27

Co      0.0000  0.0000  0.0000
Cl      0.1573  -2.2626  -0.1864
Cl      0.0640  2.2944  0.1725
N       -1.4209  0.3531  -1.3994
N       -1.3844  -0.1045  1.3336
N       1.5478  0.2708  -1.4573
N       1.5350  -0.1621  1.3943
C       -2.6033  0.5919  -0.5290
C       -2.6414  -0.4910  0.6968
C       2.9816  0.3701  -0.6565
C       2.6637  -0.3496  0.6302
H       -0.9232  0.7411  -2.3889
H       -2.7212  1.6818  -0.4928
H       -3.1689  0.0210  -1.3579
H       -3.4671  0.2401  1.1613
H       -2.9150  -1.5893  0.8045
H       -1.2426  0.9167  1.5790
H       -1.0995  -0.8771  1.8963
H       1.6190  -0.6592  -1.8306
H       1.2873  1.1801  -1.8720
H       3.7242  0.5023  -1.5521
H       2.8369  1.4134  -0.2728
H       2.6882  -1.4859  0.8706
H       3.6607  0.1442  0.9672
H       1.1239  -1.0897  1.7292
H       1.3018  0.7632  1.8048
H       -1.0524  -0.4256  -2.1110
