27

Co      0.0000  0.0000  0.0000
Cl      0.0258  -2.2100  -0.2780
Cl      0.0295  2.3364  0.2102
N       -1.4580  0.1586  -1.4305
N       -1.5696  -0.0017  1.3468
N       1.6029  0.1390  -1.3978
N       1.5813  -0.0388  1.3641
C       -2.6472  0.4661  -0.7096
C       -2.6243  -0.4709  0.5865
C       2.8462  0.4186  -0.8481
C       2.8908  -0.2861  0.5978
H       -1.1879  1.0981  -1.8226
H       -2.8023  1.5551  -0.6334
H       -3.5022  0.3071  -1.3731
H       -3.5753  -0.1918  1.0397
H       -2.6744  -1.4718  0.1430
H       -1.5479  0.7833  1.9878
H       -1.2082  -0.5781  2.1502
H       1.7409  -0.6688  -1.9935
H       1.7102  0.9178  -2.1032
H       3.1363  -0.0159  -2.0915
H       2.9162  1.3497  -0.0257
H       2.3341  -1.4422  0.8275
H       3.6432  0.3210  1.1912
H       1.0709  -0.9376  1.7244
H       2.0694  0.6820  2.0400
H       -1.6512  -0.5775  -2.1220
