27

Co      0.0000  0.0000  0.0000
Cl      0.0468  -2.3463  -0.2275
Cl      0.0841  2.3183  0.2072
N       -1.5308  0.1216  -1.5391
N       -1.4883  -0.2320  1.4529
N       1.5523  0.0826  -1.2929
N       1.5417  -0.1234  1.3084
C       -2.7964  0.5277  -0.6981
C       -2.7824  -0.4901  0.5610
C       2.8166  0.4095  -0.7023
C       2.8881  -0.3395  0.6357
H       -0.9118  1.2117  -1.6415
H       -2.9578  1.5860  -0.5283
H       -3.7126  0.3008  -1.2552
H       -3.6283  -0.3077  1.2103
H       -2.5402  -1.6516  0.8141
H       -1.4014  0.3664  2.4293
H       -0.9572  -1.0562  1.9161
H       1.2625  -0.7908  -1.8176
H       1.8544  0.7446  -2.1731
H       3.4474  -0.1502  -1.4651
H       2.0700  1.5010  -0.5481
H       2.5191  -1.4309  0.5222
H       3.7384  -0.2463  1.3113
H       0.9466  -0.7743  1.9396
H       1.8382  0.7597  1.7412
H       -0.9079  -0.9431  -1.7404
