27

Co      0.0000  0.0000  0.0000
Cl      -0.0409  -2.2786  -0.2202
Cl      -0.1028  2.2387  0.1619
N       -1.5110  0.1160  -1.4386
N       -1.3419  -0.2845  1.2814
N       1.6274  0.1389  -1.4982
N       1.4229  -0.3134  1.2937
C       -2.6123  0.2867  -0.6478
C       -2.8665  -0.3242  0.6512
C       2.7151  0.3300  -0.7292
C       2.5738  -0.4217  0.7473
H       -1.7172  1.2555  -1.7147
H       -2.9821  1.2707  -0.0803
H       -3.5420  0.6042  -1.3997
H       -3.7344  -0.2909  1.3339
H       -2.6765  -1.3967  0.4840
H       -1.9235  0.4221  2.0224
H       -1.4485  -0.7637  2.3152
H       1.2753  -0.8308  -1.8386
H       1.4574  0.7408  -2.3049
H       3.6142  -0.1871  -1.1650
H       2.6183  1.4130  -0.5999
H       2.8390  -1.3708  0.0277
H       3.3414  -0.1446  1.4553
H       1.5437  -1.1215  1.9584
H       1.4269  0.4824  1.9198
H       -1.5771  -0.7929  -1.8538
