27

Co      0.0000  0.0000  0.0000
Cl      0.0414  -2.4039  -0.1133
Cl      -0.0122  2.2253  0.2707
N       -1.1593  0.1433  -1.2516
N       -1.3524  -0.2328  1.3686
N       1.4908  0.1249  -1.2614
N       1.5619  -0.1806  1.4359
C       -2.7387  0.4926  -0.4886
C       -2.7235  -0.3090  0.6367
C       2.8703  0.3718  -0.6067
C       2.8250  -0.3792  0.6533
H       -0.9551  1.0879  -1.6648
H       -2.9597  1.6233  -0.6899
H       -3.6086  0.1791  -1.0580
H       -3.7640  -0.3880  1.1501
H       -2.6681  -1.4066  0.6190
H       -1.5458  0.6241  1.8593
H       -0.5302  -1.0338  1.7637
H       1.0935  -0.7085  -1.8629
H       1.0676  0.8221  -1.8849
H       3.7246  0.3884  -1.3445
H       3.2540  1.4208  -0.3880
H       2.7200  -1.4287  0.3516
H       3.6966  -0.2146  1.2600
H       1.7679  -1.1389  1.9453
H       1.0565  0.8378  1.7349
H       -1.0131  -0.5934  -2.0141
