27

Co      0.0000  0.0000  0.0000
Cl      -0.0963  -2.2769  -0.2076
Cl      -0.0708  2.3013  0.2214
N       -1.3954  0.1546  -1.4169
N       -1.6599  -0.0756  1.3306
N       1.3912  0.1279  -1.2698
N       1.4360  -0.2525  1.2707
C       -2.9655  0.3672  -0.6891
C       -2.9323  -0.3533  0.6397
C       2.5834  0.5093  -0.6035
C       2.6922  -0.3715  0.6478
H       -1.0174  0.8915  -1.9995
H       -2.5127  1.3605  -0.0670
H       -4.0107  0.1640  -1.0524
H       -3.7968  -0.5491  1.4349
H       -2.7853  -1.4435  0.5158
H       -1.2546  0.8531  1.7794
H       -1.8193  -0.9500  1.9116
H       1.0453  -0.6658  -1.9396
H       0.9927  0.5549  -2.2421
H       3.1805  0.0913  -1.4719
H       2.6504  1.6083  -0.6545
H       3.2176  -1.3844  0.2613
H       3.4701  -0.0633  1.3361
H       1.7445  -1.1724  1.8473
H       1.3518  0.6554  1.7164
H       -1.8094  -0.8301  -1.6845
