27

Co      0.0000  0.0000  0.0000
Cl      -0.0095  -2.3851  -0.2385
Cl      0.0143  2.1608  0.2022
N       -1.3901  0.1755  -1.4221
N       -1.5889  -0.2539  1.2909
N       1.3712  0.0634  -1.4670
N       1.5558  -0.1886  1.3645
C       -2.8328  0.3402  -0.5509
C       -2.6862  -0.5198  0.5926
C       2.5432  0.2709  -0.6254
C       2.7025  -0.3398  0.5433
H       -0.7834  1.0143  -1.8439
H       -3.1030  1.5044  -0.8710
H       -3.3178  0.1557  -1.6905
H       -3.5517  0.0466  1.0551
H       -2.7302  -1.6320  0.7579
H       -1.5737  0.8808  1.3382
H       -1.3767  -0.9000  2.0269
H       1.2469  -0.9736  -1.7126
H       1.1092  0.6749  -2.2159
H       3.5862  0.2618  -1.0885
H       3.0508  1.3091  -0.4167
H       3.1129  -1.4407  0.6918
H       3.4983  -0.0935  1.2371
H       1.4511  -1.0683  1.8566
H       1.4640  0.6859  1.8637
H       -1.3096  -0.4591  -2.3216
