27

Co      0.0000  0.0000  0.0000
Cl      0.1259  -2.2376  -0.1551
Cl      0.0958  2.2525  0.2549
N       -1.4694  0.0679  -1.2405
N       -1.4214  -0.1616  1.3995
N       1.5056  0.0324  -1.2902
N       1.6796  -0.1974  1.5122
C       -2.5346  0.4074  -0.4671
C       -2.6086  -0.3291  0.7249
C       2.9431  0.4719  -0.4057
C       2.6889  -0.3687  0.7266
H       -0.9705  0.7079  -1.9301
H       -2.3410  1.4489  -0.1904
H       -3.6259  0.2971  -0.8126
H       -3.4124  -0.6206  1.6248
H       -2.9346  -1.3824  0.5027
H       -1.5775  0.7439  1.8198
H       -1.4432  -1.0503  1.9248
H       1.7130  -0.8277  -1.7948
H       1.3898  0.7745  -1.9631
H       3.6141  0.2999  -1.2836
H       2.9650  1.5811  -0.4496
H       2.6778  -1.4115  0.4818
H       3.5870  -0.0769  1.2672
H       1.5168  -1.1793  1.8762
H       1.6026  0.5446  2.2237
H       -1.9828  -0.5407  -2.1261
