27

Co      0.0000  0.0000  0.0000
Cl      -0.0421  -2.2157  -0.1982
Cl      0.0064  2.3243  0.1979
N       -1.3513  -0.0157  -1.4113
N       -1.3521  -0.1809  1.3873
N       1.5765  0.1791  -1.4178
N       1.5161  -0.1703  1.3253
C       -2.8299  0.5911  -0.4873
C       -2.8039  -0.3701  0.6581
C       2.8396  0.5581  -0.6391
C       2.7213  -0.3962  0.7921
H       -1.2754  0.9453  -1.8397
H       -2.5802  1.6992  -0.4806
H       -3.6116  0.3510  -1.2027
H       -3.6990  -0.7446  1.4736
H       -2.7154  -1.4291  0.3607
H       -1.4494  0.6126  2.0151
H       -1.4979  -0.8029  2.2752
H       1.7586  -0.5412  -2.1533
H       1.2926  0.9366  -2.0439
H       3.7657  0.1866  -1.0949
H       2.8538  1.5773  -0.2057
H       2.7804  -1.4387  0.5857
H       3.5267  0.4575  1.2197
H       0.9791  -0.9336  1.8434
H       1.7671  0.7081  1.7795
H       -2.0116  -0.6898  -2.1691
