27

Co      0.0000  0.0000  0.0000
Cl      0.0496  -2.3328  -0.2845
Cl      0.0258  2.2976  0.1830
N       -1.4087  0.1681  -1.4262
N       -1.3448  -0.1783  1.3688
N       1.3423  0.1501  -1.3787
N       1.4798  -0.0933  1.2970
C       -2.9945  0.3084  -0.6820
C       -2.7442  -0.3646  0.6291
C       2.9029  0.4182  -0.6113
C       2.7190  -0.5666  0.6789
H       -1.8524  0.8391  -2.3108
H       -2.8172  1.3860  -0.5920
H       -3.7949  -0.1973  -1.2624
H       -3.4681  0.1378  1.3113
H       -2.9971  -1.3481  0.1183
H       -1.6279  0.6141  1.9898
H       -1.7799  -0.9733  2.1232
H       1.8884  -0.6573  -1.9231
H       0.9418  0.7908  -2.0856
H       3.4594  -0.1815  -1.4581
H       2.6643  1.4567  -0.3028
H       2.7811  -1.6289  0.5332
H       3.5869  -0.4023  1.3190
H       1.2215  -0.6293  2.1683
H       1.2209  0.7420  1.8639
H       -1.7840  -0.8802  -1.6270
