27

Co      0.0000  0.0000  0.0000
Cl      0.0537  -2.3355  -0.2191
Cl      0.0751  2.2062  0.1406
N       -1.4733  0.1519  -1.2550
N       -1.3956  -0.1135  1.3021
N       1.6371  0.1864  -1.2755
N       1.4781  -0.2317  1.3202
C       -2.8587  0.3382  -0.5816
C       -2.8897  -0.4278  0.6210
C       2.6354  0.4108  -0.5848
C       2.8086  -0.4825  0.7017
H       -0.9739  1.0253  -1.6658
H       -2.7671  1.3489  -0.1461
H       -3.7744  -0.1722  -0.9747
H       -3.7224  -0.2650  1.3066
H       -3.1243  -1.4919  0.4629
H       -1.7118  0.7570  1.7857
H       -1.6816  -0.9787  1.9360
H       1.6449  -0.6004  -1.9030
H       1.4431  0.7978  -2.1010
H       3.5129  0.3215  -1.2288
H       2.4286  1.4720  -0.3416
H       3.2563  -1.5266  0.4485
H       4.1220  -0.0502  0.6519
H       1.4831  -1.1858  1.7841
H       1.2577  0.4487  2.1638
H       -1.6121  -0.6577  -1.8435
