27

Co      0.0000  0.0000  0.0000
Cl      0.0343  -2.3115  -0.2185
Cl      0.0135  2.2071  0.1346
N       -1.5294  0.1339  -1.2994
N       -1.6001  -0.3233  1.3033
N       1.4259  0.0350  -1.3639
N       1.4598  -0.3337  1.3809
C       -2.8673  0.2584  -0.5420
C       -2.7717  -0.5098  0.5401
C       2.6143  0.3358  -0.7135
C       2.7597  -0.5019  0.6956
H       -1.6460  0.9641  -1.9223
H       -2.8168  1.3610  -0.5437
H       -3.4276  -0.4526  -1.3415
H       -3.5913  -0.1296  1.1278
H       -3.2418  -1.5525  0.3574
H       -1.3221  0.7767  1.4566
H       -1.8727  -1.0932  2.0323
H       1.0073  -0.8937  -1.8061
H       1.1914  0.8865  -1.8605
H       3.5633  -0.0551  -1.1476
H       3.1437  1.3439  -0.3900
H       2.9766  -1.4709  0.0551
H       3.8375  -0.5381  1.1330
H       1.2421  -1.1958  1.8854
H       1.5490  0.2747  2.3160
H       -1.4428  -0.6601  -1.9424
