27

Co      0.0000  0.0000  0.0000
Cl      -0.0399  -2.3051  -0.3027
Cl      -0.0752  2.3119  0.1904
N       -1.5613  0.0472  -1.4865
N       -1.4574  -0.1413  1.2642
N       1.3921  0.3049  -1.4062
N       1.3686  -0.0823  1.2223
C       -2.7885  0.3590  -0.8373
C       -2.9224  -0.3204  0.5939
C       2.6083  0.3255  -0.7419
C       2.5280  -0.4954  0.5537
H       -1.4450  1.0698  -1.7951
H       -2.9591  1.2929  -0.0541
H       -3.5471  -0.0330  -1.5033
H       -3.8033  -0.0228  1.1561
H       -2.7450  -1.4457  0.6767
H       -1.5039  0.7708  1.7137
H       -1.5389  -0.7359  2.1432
H       1.1262  -0.6958  -1.7150
H       1.2133  0.8226  -2.3031
H       3.0155  -0.2187  -1.7794
H       2.9966  1.3018  -0.2172
H       2.9762  -1.5502  0.4559
H       3.2175  -0.2138  1.3817
H       1.4073  -0.6764  2.1088
H       1.3376  0.7364  1.8073
H       -1.7911  -0.9106  -1.8135
