27

Co      0.0000  0.0000  0.0000
Cl      -0.0588  -2.1272  -0.1620
Cl      -0.0579  2.3174  0.1978
N       -1.5135  0.1918  -1.2501
N       -1.5533  -0.1958  1.3280
N       1.3321  0.1454  -1.3145
N       1.5880  -0.1656  1.2228
C       -2.8503  0.5056  -0.6953
C       -2.9045  -0.3264  0.6322
C       2.6333  0.5576  -0.6669
C       2.6328  -0.4094  0.7439
H       -1.2957  1.2456  -1.5373
H       -3.0382  1.4761  -0.0922
H       -3.4243  0.1004  -1.5925
H       -3.7363  0.2179  1.1398
H       -2.7744  -1.4399  0.6935
H       -1.7438  0.5603  1.9979
H       -1.4783  -1.0678  1.8452
H       1.5178  -0.8946  -1.5043
H       1.0304  0.9723  -1.8171
H       3.6638  0.4757  -1.1286
H       2.8859  1.6737  -0.7135
H       2.9143  -1.4183  0.4017
H       3.5187  0.0712  1.2048
H       0.6839  -0.6907  1.9318
H       1.3592  0.5097  2.0700
H       -1.4854  -0.4972  -2.0507
