27

Co      0.0000  0.0000  0.0000
Cl      0.0902  -2.2913  -0.3262
Cl      0.0065  2.3020  0.1665
N       -1.3513  0.0966  -1.2633
N       -1.3133  -0.0580  1.2602
N       1.5532  0.0407  -1.4583
N       1.4150  -0.0556  1.1966
C       -2.8917  0.3731  -0.7855
C       -2.8522  -0.4310  0.6325
C       2.9030  0.3392  -0.6302
C       2.8403  -0.5142  0.5216
H       -1.4131  0.8325  -2.0168
H       -2.7686  1.3830  -0.3495
H       -3.4651  -0.1424  -1.6317
H       -3.7654  -0.0690  1.1066
H       -2.6290  -1.3649  -0.1616
H       -1.0785  0.7388  1.9085
H       -0.9585  -0.7954  1.8820
H       1.4904  -0.7894  -2.0435
H       1.8720  0.8451  -2.2037
H       3.5135  -0.0316  -1.4769
H       2.6501  1.3429  -0.0896
H       2.7103  -1.6882  0.8658
H       3.9027  -0.1555  0.8342
H       1.5623  -1.1285  1.5434
H       1.6206  0.8127  1.6772
H       -1.3087  -0.5619  -2.1397
