27

Co      0.0000  0.0000  0.0000
Cl      0.0331  -2.3156  -0.2500
Cl      -0.0035  2.3374  0.2457
N       -1.3861  0.1341  -1.4217
N       -1.4740  -0.0463  1.4326
N       1.5549  0.1001  -1.3626
N       1.5516  -0.1437  1.3840
C       -2.7186  0.3366  -0.8198
C       -2.7783  -0.4151  0.6021
C       2.8677  0.4450  -0.7021
C       2.8699  -0.4836  0.4512
H       -1.7123  1.0031  -2.0639
H       -2.7161  1.2932  -0.1076
H       -3.6976  0.3337  -1.3731
H       -3.6828  -0.3310  1.2117
H       -2.7573  -1.4999  0.5069
H       -1.5341  0.7314  2.0824
H       -1.3297  -0.8004  2.0728
H       1.5150  -0.9367  -1.6044
H       1.6306  0.5549  -2.4092
H       3.8364  -0.1801  -1.0171
H       2.7892  1.5515  -0.8069
H       3.3744  -1.5345  0.2761
H       3.5544  -0.2441  1.2866
H       1.0448  -0.9407  1.8757
H       1.6855  0.7752  1.7962
H       -1.3157  -0.7095  -1.9809
