27

Co      0.0000  0.0000  0.0000
Cl      0.0862  -2.3185  -0.2056
Cl      0.0297  2.2829  0.2317
N       -1.4616  0.1302  -1.4167
N       -1.4573  -0.2469  1.4541
N       1.4601  0.0829  -1.3286
N       1.5895  -0.1184  1.3238
C       -2.8139  0.3836  -0.6463
C       -2.8155  -0.4876  0.6880
C       2.8773  0.3678  -0.4285
C       2.7905  -0.6243  0.5606
H       -1.4831  0.7824  -2.2288
H       -2.4503  1.4196  -0.2918
H       -3.4931  0.0098  -1.4270
H       -3.4176  -0.2501  1.6315
H       -2.6853  -1.5604  0.5578
H       -1.4106  1.0165  1.2870
H       -1.1021  -1.0299  1.9701
H       1.2342  -0.9170  -1.6513
H       1.5929  0.6298  -2.2786
H       3.7726  0.3191  -1.0795
H       2.8356  1.5851  -0.9844
H       2.7951  -1.6896  0.4445
H       3.8628  -0.4170  0.9054
H       0.7773  -0.8550  1.7950
H       1.4844  0.6264  2.0551
H       -0.9421  -0.8215  -1.8276
