27

Co      0.0000  0.0000  0.0000
Cl      -0.0064  -2.3275  -0.2297
Cl      0.0157  2.3007  0.2587
N       -1.6574  0.0296  -1.2001
N       -1.6559  -0.1612  1.4958
N       1.5288  0.0663  -1.3238
N       1.3816  -0.1535  1.3972
C       -2.7730  0.2546  -0.6588
C       -2.7755  -0.3987  0.7055
C       2.7684  0.3576  -0.5147
C       2.7853  -0.4803  0.7165
H       -1.1872  0.7240  -1.8490
H       -2.2615  1.3473  -0.5353
H       -3.6531  0.1163  -1.2730
H       -3.4556  0.1096  1.4049
H       -2.7223  -1.3931  0.2443
H       -1.7156  0.6677  2.0353
H       -1.1259  -0.7421  2.2399
H       1.6764  -0.7991  -1.8135
H       1.2907  1.0225  -1.7190
H       3.7256  0.4868  -1.1774
H       2.4967  1.5752  -0.9999
H       2.6064  -1.5241  0.3909
H       4.0435  -0.1840  0.7693
H       1.1064  -0.9372  1.9683
H       1.7987  0.7438  1.8109
H       -1.4187  -0.6784  -1.9744
