27

Co      0.0000  0.0000  0.0000
Cl      0.0181  -2.3923  -0.2775
Cl      0.0025  2.2474  0.2014
N       -1.4483  0.2422  -1.2440
N       -1.5469  -0.0981  1.4701
N       1.4631  0.0149  -1.3719
N       1.4738  -0.1442  1.3477
C       -2.8190  0.3559  -0.8144
C       -2.8119  -0.2969  0.7628
C       2.7749  0.4486  -0.6085
C       2.8693  -0.3285  0.7160
H       -1.1606  0.7323  -2.1658
H       -3.0406  1.2440  0.1710
H       -3.8284  0.2516  -1.2690
H       -3.4943  -0.1609  1.6460
H       -2.9695  -1.3461  0.5355
H       -1.4014  0.8211  1.9028
H       -1.6763  -1.0825  1.9181
H       1.3909  -0.6979  -2.1347
H       1.5677  1.1760  -1.6037
H       3.8346  0.4360  -1.0744
H       2.8453  1.6022  -0.8567
H       2.8283  -1.3711  0.3751
H       3.7729  -0.0906  1.2386
H       0.9202  -0.8583  1.9245
H       1.6564  0.7503  1.7938
H       -0.8614  -0.5677  -1.9134
