27

Co      0.0000  0.0000  0.0000
Cl      0.0758  -2.2858  -0.1541
Cl      -0.0269  2.2755  0.3002
N       -1.5106  0.0220  -1.2109
N       -1.4148  -0.0612  1.2936
N       1.1202  0.0744  -1.2232
N       1.3985  -0.2635  1.4762
C       -2.8034  0.3614  -0.4768
C       -2.7961  -0.4461  0.6789
C       2.7548  0.3229  -0.6113
C       2.5934  -0.4534  0.7593
H       -0.8520  0.8508  -1.6522
H       -3.0017  1.5262  -0.8101
H       -3.5312  0.1592  -1.2843
H       -3.8223  0.2097  0.8554
H       -2.3837  -1.5183  0.5043
H       -1.4301  0.7797  1.8351
H       -1.1761  -0.7108  2.0485
H       1.5245  -0.5858  -2.0724
H       1.4692  1.0855  -1.7245
H       3.8242  -0.0178  -0.9035
H       3.1993  1.4418  -0.7115
H       2.8385  -1.4671  0.4165
H       3.7128  -0.2341  1.0324
H       1.0165  -1.1489  1.9160
H       1.7031  0.4901  2.1341
H       -1.3347  -0.7410  -1.8906
