27

Co      0.0000  0.0000  0.0000
Cl      -0.0022  -2.2115  -0.2738
Cl      -0.0635  2.3360  0.1847
N       -1.5405  0.1280  -1.3636
N       -1.6165  0.0177  1.3391
N       1.4901  0.2024  -1.4536
N       1.4361  -0.1348  1.3414
C       -2.9213  0.4335  -0.7608
C       -2.7115  -0.4079  0.5978
C       2.6663  0.3940  -0.7172
C       2.7254  -0.4444  0.4814
H       -0.9146  1.0961  -1.6131
H       -2.2658  1.5705  -0.7696
H       -3.7329  0.3479  -1.4891
H       -3.5493  -0.0879  1.1974
H       -2.5634  -1.5520  0.7774
H       -1.8079  0.7628  2.0094
H       -1.4946  -0.7025  2.0346
H       1.7261  -0.7229  -1.8483
H       1.3587  0.7162  -2.3738
H       3.6275  0.3070  -1.2541
H       2.6893  1.3942  -0.2703
H       2.1110  -1.4768  0.1013
H       3.1934  0.0335  1.4677
H       1.7507  -0.9227  2.0959
H       1.0265  0.5762  2.1476
H       -1.7124  -0.8623  -1.6210
