27

Co      0.0000  0.0000  0.0000
Cl      0.0685  -2.2437  -0.2920
Cl      0.0474  2.3810  0.1991
N       -1.5067  0.1326  -1.3361
N       -1.6010  -0.0910  1.4331
N       1.5564  0.2411  -1.4576
N       1.4857  0.0252  1.3809
C       -2.9895  0.4476  -0.6031
C       -2.6709  -0.3289  0.5748
C       2.8811  0.4361  -0.7738
C       2.7754  -0.5058  0.7126
H       -0.8696  0.7290  -2.0463
H       -2.5289  1.4949  -0.2816
H       -3.7510  0.1663  -1.3012
H       -3.6464  -0.4006  1.1604
H       -2.4554  -1.4318  0.5644
H       -1.1684  0.9264  1.6867
H       -1.0364  -1.0047  1.7584
H       1.7363  -0.5964  -2.0136
H       1.5269  0.9643  -2.1651
H       3.6807  -0.4469  -1.1908
H       2.7769  1.4916  -0.5597
H       2.8585  -1.6110  0.7320
H       3.4010  0.0816  1.4884
H       1.3517  -0.7588  1.9937
H       1.3933  1.0243  1.6692
H       -1.4978  -0.4936  -2.2367
