27

Co      0.0000  0.0000  0.0000
Cl      0.0200  -2.1387  -0.2633
Cl      0.0578  2.3723  0.1427
N       -1.5158  0.2234  -1.3548
N       -1.4179  -0.1783  1.3757
N       1.4070  0.1916  -1.4317
N       1.3269  -0.0648  1.1400
C       -2.7317  0.4163  -0.6143
C       -2.7607  -0.4035  0.5209
C       2.7814  0.4375  -0.7550
C       2.7474  -0.3468  0.6477
H       -0.7472  0.6812  -2.1724
H       -3.1369  1.4897  -0.5939
H       -3.2789  -0.0129  -1.5292
H       -3.9717  0.2678  0.5003
H       -2.9895  -1.3604  -0.0780
H       -1.6022  0.5536  2.0855
H       -1.1402  -1.3444  1.4983
H       1.9041  -0.6638  -1.9092
H       1.0258  0.8421  -2.1397
H       3.4650  -0.3052  -1.3655
H       3.0200  1.4173  -0.2006
H       2.8174  -1.3892  0.3759
H       3.7684  -0.1726  1.0825
H       1.2981  -0.7923  1.8379
H       1.1940  0.8191  1.6340
H       -1.1285  -0.7269  -1.7607
