27

Co      0.0000  0.0000  0.0000
Cl      -0.0165  -2.2768  -0.2623
Cl      0.0613  2.4043  0.2222
N       -1.3415  0.1567  -1.2014
N       -1.5332  -0.0857  1.2821
N       1.4153  0.1238  -1.2569
N       1.4319  -0.1421  1.3489
C       -2.5801  0.3101  -0.6511
C       -2.7555  -0.4038  0.5898
C       2.7836  0.3352  -0.6462
C       2.9549  -0.2050  0.5578
H       -1.1508  0.6825  -2.1258
H       -2.6675  1.3203  -0.2676
H       -3.6121  0.2391  -1.1057
H       -3.3678  -0.1247  1.4970
H       -3.1671  -1.4204  0.3293
H       -2.1440  0.7422  1.7664
H       -0.6666  -1.0976  1.4247
H       1.4764  -0.7310  -1.7588
H       1.2563  0.8030  -2.0058
H       3.6842  -0.3008  -1.0519
H       2.7795  1.5134  -1.0622
H       2.6986  -1.3008  0.4709
H       3.7250  0.6524  0.9927
H       1.1388  -0.9441  1.9095
H       1.7132  0.6339  1.9852
H       -1.7634  -0.4505  -2.0977
