27

Co      0.0000  0.0000  0.0000
Cl      -0.1112  -2.3317  -0.2443
Cl      -0.0240  2.2446  0.2241
N       -1.5371  0.0311  -1.3190
N       -1.5889  -0.2448  1.3626
N       1.4590  0.1664  -1.2925
N       1.5324  -0.2248  1.3651
C       -2.8569  0.2441  -0.6088
C       -2.8291  -0.4669  0.7992
C       2.8339  0.3466  -0.5377
C       2.6142  -0.3482  0.5985
H       -1.6452  0.9370  -1.8576
H       -2.8988  1.3488  -0.5835
H       -3.5475  0.1403  -1.5207
H       -3.6040  0.1953  1.3254
H       -2.6930  -1.5815  0.9078
H       -1.4004  0.5666  1.9843
H       -1.3358  -0.9282  2.0542
H       1.4100  -0.9372  -1.4145
H       1.9350  0.7816  -2.2638
H       3.4613  -0.2244  -1.2960
H       2.8263  1.4281  -0.4701
H       2.6848  -1.4242  0.6200
H       3.0648  0.1050  1.6410
H       0.7420  -1.0885  1.6840
H       1.7925  0.5306  2.0082
H       -0.7497  -0.8851  -1.7999
