27

Co      0.0000  0.0000  0.0000
Cl      -0.0457  -2.3504  -0.2545
Cl      -0.0362  2.1522  0.1163
N       -1.5044  0.1350  -1.2681
N       -1.3941  -0.2999  1.3926
N       1.5332  0.1571  -1.1980
N       1.5384  -0.1746  1.2395
C       -2.6831  0.3015  -0.7237
C       -2.7314  -0.3932  0.6103
C       2.7337  0.3297  -0.5897
C       2.7319  -0.4709  0.5890
H       -1.4106  1.1353  -1.6366
H       -2.6690  1.4315  -0.8390
H       -3.8978  0.5860  -1.1043
H       -3.7104  -0.3690  1.1482
H       -2.9505  -1.4431  0.3652
H       -1.8472  0.5478  1.8761
H       -1.0268  -1.2632  1.7285
H       1.4042  -0.6198  -1.8658
H       1.3764  0.8830  -1.8861
H       3.5161  0.0902  -1.3121
H       2.8631  1.4650  -0.7653
H       2.8083  -1.5797  0.6404
H       3.7113  -0.1235  0.9833
H       1.0394  -0.5997  2.1712
H       1.4279  0.8193  1.5327
H       -1.5201  -0.5782  -2.0264
