27

Co      0.0000  0.0000  0.0000
Cl      -0.0504  -2.3956  -0.2659
Cl      -0.1143  2.2988  0.2035
N       -1.4983  0.1349  -1.3684
N       -1.6124  -0.3416  1.4536
N       1.4806  -0.0231  -1.4045
N       1.3525  -0.1419  1.3168
C       -2.9684  0.5291  -0.6001
C       -2.7576  -0.3406  0.5619
C       2.6548  0.3126  -0.7381
C       2.6412  -0.3798  0.6609
H       -1.4819  0.6081  -2.3961
H       -2.9289  1.6903  -0.8597
H       -3.7683  0.0510  -1.1983
H       -3.4344  0.3105  1.2437
H       -2.7251  -1.4544  0.7367
H       -1.9478  0.3975  2.1119
H       -0.8580  -1.0914  1.9260
H       1.6266  -0.9867  -1.7041
H       1.3812  1.0509  -1.6600
H       3.4315  0.1731  -1.5055
H       2.2705  1.3500  -0.3657
H       2.5795  -1.4407  0.4826
H       3.4511  0.1963  1.1576
H       1.3735  -0.8535  2.0639
H       1.5943  0.5374  2.1212
H       -1.0504  -0.8213  -1.7887
