27

Co      0.0000  0.0000  0.0000
Cl      0.0664  -2.3602  -0.2207
Cl      -0.0251  2.2752  0.2284
N       -1.3664  0.1717  -1.4192
N       -1.3391  -0.0806  1.2695
N       1.4922  0.1341  -1.3040
N       1.5831  -0.1005  1.3235
C       -2.5703  0.3188  -0.5815
C       -2.5804  -0.3796  0.4674
C       2.9300  0.3503  -0.7782
C       2.8129  -0.4370  0.5587
H       -0.7487  0.7385  -2.1267
H       -2.6867  1.3709  -0.3801
H       -3.5747  0.5088  -1.1989
H       -3.1996  0.0712  1.2867
H       -2.8807  -1.4123  0.2524
H       -1.4731  1.0400  1.3356
H       -1.3030  -0.7579  2.0197
H       1.2806  -0.5030  -2.2305
H       1.7155  1.0634  -1.8632
H       3.6583  0.2431  -1.6003
H       2.4831  1.3324  -0.0785
H       2.7374  -1.5293  0.4688
H       3.5257  -0.3222  1.4307
H       1.4283  -0.8216  2.0120
H       1.6025  0.6220  2.0503
H       -2.1192  -0.7575  -1.7482
