27

Co      0.0000  0.0000  0.0000
Cl      -0.0062  -2.2906  -0.3123
Cl      0.0402  2.3370  0.1588
N       -1.3332  0.1692  -1.2074
N       -1.4702  -0.0687  1.2352
N       1.4750  0.1895  -1.3503
N       1.4943  -0.0554  1.3545
C       -2.8973  0.3409  -0.6627
C       -2.8099  -0.3901  0.6965
C       2.9331  0.5123  -0.6943
C       2.7466  -0.4038  0.6416
H       -1.0763  0.8796  -1.8701
H       -2.8898  1.3010  -0.0022
H       -3.7593  -0.1648  -1.1516
H       -3.6295  -0.6634  1.5635
H       -2.9777  -1.3798  0.1354
H       -1.6606  0.7627  1.7952
H       -2.1162  -0.8102  2.1372
H       1.5022  -0.9078  -1.4771
H       1.4161  0.8582  -2.0974
H       3.6056  -0.1608  -1.3669
H       3.2551  1.5370  -0.3978
H       2.5734  -1.4837  0.4842
H       3.7284  -0.3015  1.1604
H       1.3360  -0.6436  2.1872
H       1.7625  0.8591  1.7650
H       -1.4677  -0.4951  -2.0438
