27

Co      0.0000  0.0000  0.0000
Cl      -0.0686  -2.1933  -0.1795
Cl      -0.1366  2.2414  0.2309
N       -1.5196  0.1522  -1.3864
N       -1.6458  -0.1760  1.4733
N       1.4326  0.1651  -1.4768
N       1.4004  -0.2133  1.3641
C       -2.8540  0.5439  -0.7338
C       -2.8784  -0.3267  0.7129
C       2.5316  0.4082  -0.6112
C       2.8655  -0.3784  0.5171
H       -1.1343  0.7153  -2.1820
H       -2.9864  1.6465  -0.8135
H       -3.4908  -0.0781  -1.4778
H       -3.6704  -0.2677  1.4900
H       -2.6284  -1.3511  0.2843
H       -1.7426  0.6808  1.9813
H       -1.6514  -1.1090  1.9423
H       1.2903  -0.9940  -1.4886
H       1.1185  0.6040  -2.4088
H       3.3989  0.2639  -1.2337
H       2.8795  1.3784  -0.0895
H       2.1456  -1.4557  0.3199
H       3.2804  0.2599  1.5075
H       1.4801  -1.0656  1.9570
H       1.3039  0.5760  2.0116
H       -1.8363  -0.6324  -1.9991
