27

Co      0.0000  0.0000  0.0000
Cl      -0.0446  -2.2764  -0.2470
Cl      0.0146  2.4207  0.1532
N       -1.5096  0.1702  -1.2951
N       -1.5346  -0.1518  1.4602
N       1.3766  0.2272  -1.2280
N       1.4621  -0.0885  1.3961
C       -2.6673  0.5210  -0.5994
C       -2.5879  -0.4901  0.5503
C       2.6819  0.5346  -0.6732
C       2.8432  -0.5216  0.7148
H       -1.6301  0.8404  -2.1183
H       -2.9046  1.5811  -0.4306
H       -3.7074  0.4193  -1.0279
H       -3.5219  -0.1500  1.0254
H       -3.1046  -1.6142  0.7414
H       -1.5904  0.8008  1.8230
H       -1.0343  -0.7372  2.1776
H       1.8688  -0.6171  -1.7573
H       1.8725  0.8360  -2.2235
H       3.6870  0.3894  -1.1488
H       2.6059  1.5736  -0.3381
H       3.1367  -1.5180  0.2423
H       3.5541  -0.0843  1.4203
H       1.3753  -0.9660  1.9006
H       1.3420  0.7910  1.9080
H       -1.3683  -0.7817  -1.6748
