27

Co      0.0000  0.0000  0.0000
Cl      0.0186  -2.2164  -0.2081
Cl      -0.0391  2.4388  0.3061
N       -1.5028  0.1557  -1.4681
N       -1.5081  -0.0390  1.3808
N       1.4722  0.1211  -1.3592
N       1.4945  -0.1684  1.3512
C       -2.8411  0.4754  -0.6702
C       -2.6178  -0.3386  0.6153
C       2.8825  0.5285  -0.7567
C       2.6556  -0.3141  0.6967
H       -1.4441  0.9430  -2.0727
H       -2.5681  1.5268  -0.3580
H       -3.7107  0.3204  -1.2951
H       -3.6136  -0.1392  1.0531
H       -3.0208  -1.2919  -0.0101
H       -1.6669  0.8801  1.7917
H       -1.2811  -0.4826  2.3522
H       1.1951  -0.9013  -1.6382
H       1.1326  0.6489  -2.2064
H       3.4554  0.1901  -1.7065
H       2.8814  1.6940  -1.0350
H       3.0691  -1.4475  0.8331
H       3.7075  -0.7223  1.3563
H       1.1946  -0.9857  1.8631
H       1.3746  0.7175  1.8227
H       -1.2769  -0.9746  -1.5615
