27

Co      0.0000  0.0000  0.0000
Cl      0.0421  -2.2156  -0.1938
Cl      0.0123  2.4227  0.2011
N       -1.4684  0.1042  -1.2870
N       -1.4902  -0.0224  1.2540
N       1.3991  0.2655  -1.3900
N       1.4833  -0.1523  1.3648
C       -2.8728  0.5680  -0.5988
C       -2.8597  -0.3783  0.6022
C       2.8660  0.4603  -0.6092
C       2.8010  -0.3221  0.5197
H       -0.9869  1.1271  -1.5235
H       -3.3792  1.6586  -0.5938
H       -3.8317  0.7739  -1.2857
H       -3.7341  -0.1256  1.1840
H       -2.7806  -1.3375  -0.0887
H       -1.5890  0.8667  1.7072
H       -1.3178  -0.8098  1.8494
H       1.8578  -0.5978  -1.8762
H       1.4395  0.9054  -2.2206
H       3.6518  0.3537  -1.3801
H       2.6850  1.5688  -0.6118
H       3.0004  -1.3860  0.4215
H       3.6478  -0.0147  1.1211
H       0.9277  -0.9340  1.8696
H       1.1756  0.5136  2.2439
H       -1.1322  -0.8505  -1.6705
