27

Co      0.0000  0.0000  0.0000
Cl      0.0645  -2.3563  -0.1133
Cl      0.0212  2.2406  0.2876
N       -1.4861  0.1806  -1.2251
N       -1.5363  -0.2217  1.5545
N       1.5285  0.1384  -1.3125
N       1.4410  -0.0919  1.3399
C       -2.7114  0.5212  -0.7172
C       -2.6720  -0.4197  0.7765
C       2.6790  0.3990  -0.5292
C       2.8711  -0.4404  0.7399
H       -0.9906  1.1353  -1.5466
H       -2.3649  1.5547  -0.3464
H       -3.6749  -0.0453  -1.0343
H       -3.6178  0.4902  0.9758
H       -2.7176  -1.5049  0.7340
H       -1.6166  0.4002  2.4802
H       -1.2275  -0.9943  2.1445
H       1.2526  -0.6550  -1.9641
H       1.4363  0.9647  -1.8887
H       3.7355  -0.0022  -0.8030
H       2.7454  1.4827  -0.5043
H       3.0510  -1.4433  0.2691
H       3.4485  -0.0879  1.6378
H       1.5253  -1.0401  1.8352
H       1.6070  0.7495  1.8646
H       -1.1867  -0.6288  -1.8386
