27

Co      0.0000  0.0000  0.0000
Cl      -0.0074  -2.2898  -0.1890
Cl      -0.0738  2.2673  0.1940
N       -1.3917  0.1065  -1.2500
N       -1.4004  -0.2278  1.4339
N       1.3989  0.1174  -1.3091
N       1.3901  -0.1433  1.2373
C       -2.7605  0.5567  -0.6491
C       -2.8182  -0.4991  0.6030
C       2.7710  0.3737  -0.5691
C       2.7208  -0.4881  0.5754
H       -1.3367  0.6937  -2.1326
H       -2.2779  1.6584  -0.5724
H       -3.5415  0.2487  -1.3349
H       -3.7820  -0.0969  1.0013
H       -2.2973  -1.5684  0.3468
H       -1.8852  0.4817  2.1455
H       -0.8646  -0.9993  1.9546
H       1.6010  -0.9528  -1.4612
H       1.6416  0.8448  -2.0735
H       3.4900  0.3668  -1.4644
H       2.9957  1.5129  -0.8150
H       2.6045  -1.4901  0.1219
H       3.3236  -0.2349  1.4888
H       0.7702  -0.7104  1.9718
H       1.7970  0.5431  2.0070
H       -1.8593  -0.7429  -1.7344
