27

Co      0.0000  0.0000  0.0000
Cl      0.0055  -2.2248  -0.1712
Cl      -0.0682  2.2952  0.1873
N       -1.5070  0.3550  -1.3171
N       -1.5057  -0.2141  1.4455
N       1.3910  0.1972  -1.1708
N       1.5382  -0.0503  1.2779
C       -2.7455  0.5990  -0.7366
C       -2.9257  -0.3607  0.4966
C       2.4614  0.4746  -0.6776
C       2.7255  -0.4748  0.6958
H       -1.1612  1.0484  -1.9554
H       -2.8420  1.5726  -0.2228
H       -3.9527  -0.0994  -0.6888
H       -3.5822  -0.1871  1.4006
H       -3.1932  -1.4484  0.4006
H       -1.4865  0.7690  1.7857
H       -1.2044  -0.8926  2.1290
H       1.3068  -0.4802  -2.0165
H       1.5100  0.8259  -2.0352
H       3.4110  0.2939  -1.1934
H       3.2751  1.5586  -0.7276
H       3.1804  -1.5383  0.5300
H       3.6898  -0.0827  1.0937
H       1.2151  -0.8902  1.7666
H       1.5111  0.8015  1.8123
H       -1.4612  -0.7990  -1.3371
