27

Co      0.0000  0.0000  0.0000
Cl      0.0193  -2.2068  -0.2274
Cl      -0.0645  2.2339  0.2050
N       -1.6814  0.1364  -1.2911
N       -1.5692  -0.1367  1.3822
N       1.3867  0.1907  -1.2183
N       1.3461  -0.1734  1.3064
C       -2.7594  0.4342  -0.6507
C       -2.8440  -0.4554  0.5606
C       2.8407  0.3056  -0.6495
C       2.6350  -0.4468  0.6246
H       -1.5952  0.9575  -1.8508
H       -2.8396  1.5382  -0.7265
H       -3.7934  -0.0918  -0.9315
H       -3.0734  0.3095  1.7326
H       -2.7791  -1.4171  -0.0998
H       -1.2405  0.9929  1.4839
H       -1.6011  -0.6315  2.3806
H       1.0667  -0.6581  -1.7886
H       1.5550  1.0017  -1.8833
H       3.5278  0.1453  -1.5062
H       2.5913  1.4233  -0.6689
H       2.5583  -1.5035  0.3805
H       3.4529  0.0026  1.1806
H       1.3088  -0.9136  2.0088
H       1.0768  0.5531  2.0669
H       -1.5306  -0.9664  -1.4151
