27

Co      0.0000  0.0000  0.0000
Cl      -0.0474  -2.2414  -0.2559
Cl      -0.0111  2.2044  0.1143
N       -1.4853  0.0846  -1.4655
N       -1.4532  -0.2101  1.2077
N       1.4221  0.2232  -1.3572
N       1.4804  -0.2469  1.3775
C       -2.6488  0.3322  -0.5736
C       -2.8813  -0.4493  0.6574
C       2.8890  0.3789  -0.6049
C       2.7985  -0.5325  0.6053
H       -1.2077  0.5261  -2.4458
H       -2.8578  1.4153  -0.6177
H       -3.3044  -0.4738  -1.1913
H       -3.6926  0.1020  1.1972
H       -2.6443  -1.4718  0.3213
H       -1.8287  0.5229  1.8903
H       -0.4806  -0.8752  1.7168
H       1.8208  -0.5242  -2.0044
H       1.3415  1.0027  -2.0093
H       3.3790  0.0707  -1.6612
H       2.5416  1.4998  -0.6048
H       3.1409  -1.6002  0.5000
H       3.8587  -0.2971  0.9789
H       1.3548  -1.2043  1.7796
H       1.8326  0.6262  1.8343
H       -1.5890  -0.8253  -1.8812
