27

Co      0.0000  0.0000  0.0000
Cl      0.0615  -2.3250  -0.1831
Cl      0.0925  2.2244  0.2583
N       -1.1980  0.1619  -1.3650
N       -1.4112  -0.0616  1.2847
N       1.5663  0.1003  -1.2406
N       1.4015  -0.1618  1.2840
C       -2.7208  0.3755  -0.6982
C       -2.7177  -0.3313  0.7215
C       2.7468  0.5466  -0.7713
C       2.8262  -0.3418  0.6423
H       -1.1172  0.9891  -1.9362
H       -2.6747  1.4023  -0.3118
H       -3.5552  0.1567  -1.3409
H       -3.3452  -0.4056  1.7453
H       -2.3554  -1.4164  0.5376
H       -1.1048  0.6290  2.0993
H       -1.4129  -0.9715  1.8083
H       1.8760  -0.6052  -1.9889
H       1.3507  0.7730  -1.9709
H       3.7523  -0.2049  -0.9688
H       3.0071  1.5308  -0.3220
H       2.4152  -1.3088  -0.1426
H       3.7361  0.2285  1.0156
H       1.3580  -0.9096  1.9889
H       1.6445  0.6262  1.9062
H       -1.5946  -0.7278  -1.7931
