27

Co      0.0000  0.0000  0.0000
Cl      0.0161  -2.2663  -0.2441
Cl      0.0287  2.2327  0.1501
N       -1.3170  0.1274  -1.3186
N       -1.3542  -0.2326  1.2673
N       1.5735  0.1097  -1.3977
N       1.4953  -0.1833  1.2235
C       -2.6313  0.4748  -0.8081
C       -2.6797  -0.4536  0.5173
C       2.9189  0.4579  -0.8203
C       2.8121  -0.3994  0.6632
H       -0.9301  0.9759  -1.7681
H       -2.8626  1.5032  -0.4492
H       -3.7310  0.2076  -1.0972
H       -3.1767  0.2668  1.3725
H       -2.6578  -1.4801  0.1734
H       -1.6458  0.6037  1.7909
H       -1.4292  -0.9678  2.0091
H       1.2832  -0.7143  -2.0001
H       0.7015  0.7895  -1.9268
H       3.7439  0.4719  -1.5854
H       3.1782  1.4674  -0.3552
H       2.8653  -1.4216  0.2737
H       4.0186  -0.1878  0.8238
H       1.3597  -0.8711  1.9530
H       1.5404  0.6492  1.7853
H       -1.1708  -0.8769  -1.6093
