27

Co      0.0000  0.0000  0.0000
Cl      0.0056  -2.2637  -0.2515
Cl      -0.0521  2.3533  0.1802
N       -1.4538  0.1796  -1.4812
N       -1.4851  -0.1457  1.3415
N       1.6114  0.1348  -1.3306
N       1.6294  -0.1019  1.3006
C       -2.7106  0.4636  -0.4963
C       -2.7852  -0.3478  0.6214
C       2.8969  0.5567  -0.7129
C       2.5895  -0.4617  0.6122
H       -1.4902  1.0988  -1.9734
H       -2.7970  1.6130  -0.6953
H       -3.5965  0.5043  -1.2039
H       -4.0036  -0.0591  0.7403
H       -2.6098  -1.4346  0.5567
H       -2.0076  0.6233  1.9659
H       -1.3681  -0.7629  2.1514
H       1.5615  -0.6928  -1.9174
H       1.7212  0.7844  -2.1756
H       3.7938  0.1374  -1.2013
H       2.9602  1.6848  -0.8353
H       3.3562  -1.5416  0.6565
H       3.4549  -0.2834  1.2664
H       1.2814  -0.7883  1.9717
H       1.7858  0.6394  2.0048
H       -1.7705  -0.8434  -1.6878
