27

Co      0.0000  0.0000  0.0000
Cl      0.0240  -2.3216  -0.1875
Cl      -0.0123  2.2576  0.2533
N       -1.5061  0.1418  -1.2468
N       -1.5322  -0.0702  1.2570
N       1.3466  0.0152  -1.3986
N       1.4215  -0.2775  1.2958
C       -2.6328  0.3939  -0.6447
C       -2.7395  -0.5938  0.6737
C       2.5755  0.4050  -0.6278
C       2.5833  -0.4492  0.5727
H       -1.1755  0.6602  -2.0987
H       -3.0346  1.4006  -0.2239
H       -3.5123  0.4824  -1.3664
H       -3.3682  -0.0484  1.4373
H       -2.6833  -1.5943  0.2180
H       -1.9896  0.6170  2.0234
H       -1.6353  -0.9899  1.7887
H       1.1584  -0.9613  -1.7555
H       1.9345  0.9553  -2.0096
H       3.7399  0.1501  -0.8322
H       2.9393  1.4640  -0.4745
H       3.1502  -1.5461  0.6653
H       3.1554  -0.1316  1.5176
H       1.3340  -0.6941  2.3419
H       1.2770  0.5817  1.8632
H       -1.7713  -0.9030  -1.4236
