27

Co      0.0000  0.0000  0.0000
Cl      0.0188  -2.2600  -0.1526
Cl      -0.0155  2.3606  0.2784
N       -1.5662  0.3642  -1.3827
N       -1.5161  -0.1992  1.4831
N       1.4206  0.0827  -1.2844
N       1.5498  -0.0641  1.5169
C       -2.7839  0.5210  -0.5587
C       -2.7243  -0.3457  0.7835
C       2.6870  0.4788  -0.4982
C       2.5872  -0.2778  0.6737
H       -1.4908  0.9337  -2.2516
H       -3.0807  1.5769  -0.4045
H       -3.4445  0.2452  -1.4277
H       -3.5476  0.0200  1.4035
H       -2.7324  -1.4226  0.7218
H       -1.6200  0.6809  1.9665
H       -0.8780  -0.5944  2.3929
H       1.4115  -1.0751  -1.2817
H       1.1603  0.9772  -1.6877
H       3.3278  0.1088  -1.3114
H       2.7562  1.4057  0.2966
H       2.8084  -1.3431  0.5915
H       3.2630  -0.0643  1.5328
H       1.6817  -0.9144  2.1049
H       1.3407  0.6683  2.2643
H       -1.7405  -0.5982  -1.7300
