27

Co      0.0000  0.0000  0.0000
Cl      0.0014  -2.3060  -0.2456
Cl      0.0116  2.1550  0.1892
N       -1.3961  0.0249  -1.3502
N       -1.4810  -0.1892  1.1305
N       1.5035  0.0824  -1.3416
N       1.5759  -0.1976  1.3772
C       -2.6956  0.3795  -0.6688
C       -2.8544  -0.4812  0.8389
C       2.6303  0.4555  -0.6239
C       2.7376  -0.5316  0.6430
H       -1.5863  1.0235  -1.7968
H       -2.7666  1.5276  -0.8451
H       -3.5832  0.1454  -1.2522
H       -3.7793  0.0165  1.2367
H       -3.0511  -1.4368  0.1570
H       -1.2712  0.6615  1.7016
H       -1.1246  -0.8513  1.8251
H       1.1134  -0.8970  -1.6774
H       0.9971  0.9068  -1.7966
H       3.2982  0.3188  -1.5170
H       2.8627  1.5411  -0.5990
H       2.9866  -1.5423  0.2939
H       3.4085  0.0145  1.3550
H       1.2255  -0.8746  2.0588
H       1.7847  0.4897  2.1725
H       -1.3512  -0.8783  -1.7962
