27

Co      0.0000  0.0000  0.0000
Cl      -0.0853  -2.2242  -0.2807
Cl      -0.0257  2.2036  0.1959
N       -1.3959  0.0285  -1.2550
N       -1.5835  -0.1289  1.3899
N       1.3527  0.2080  -1.3581
N       1.4170  -0.1830  1.2805
C       -2.7408  0.3258  -0.7095
C       -2.7029  -0.3356  0.7232
C       2.9501  0.4088  -0.6072
C       2.6943  -0.4418  0.7081
H       -1.7836  0.9310  -1.8599
H       -2.8915  1.3990  -0.6051
H       -3.7135  0.1336  -1.1746
H       -3.8283  -0.3428  1.0860
H       -2.9147  -1.3360  0.2206
H       -1.2890  0.7593  1.8760
H       -1.3839  -0.8889  2.0064
H       1.7539  -0.4216  -2.2465
H       1.1710  0.7755  -2.2275
H       3.7138  0.0732  -1.3185
H       2.9297  1.5743  -0.9159
H       3.3498  -1.4694  0.4400
H       3.2567  -0.2467  1.7143
H       1.9315  -0.8303  2.2368
H       1.1517  0.9293  1.4105
H       -1.4340  -0.9633  -1.5593
