27

Co      0.0000  0.0000  0.0000
Cl      -0.0822  -2.3973  -0.1293
Cl      -0.0356  2.2696  0.3377
N       -1.6167  0.0463  -1.2653
N       -1.5867  -0.2023  1.3945
N       1.3536  0.0278  -1.2002
N       1.5434  -0.1973  1.5181
C       -2.8527  0.4131  -0.5134
C       -2.7407  -0.3875  0.6691
C       2.6892  0.3704  -0.4433
C       2.8100  -0.2727  0.6897
H       -1.5935  0.6890  -2.0853
H       -2.5437  1.4840  -0.3477
H       -3.7079  0.2781  -1.1850
H       -3.5979  -0.4899  1.4181
H       -2.9312  -1.4769  0.5869
H       -1.7410  0.4043  2.3260
H       -1.0307  -0.8327  2.0835
H       1.5240  -0.7246  -1.8936
H       1.4005  0.8055  -1.8808
H       3.5786  -0.3754  -0.8024
H       2.8477  1.4320  -0.3701
H       2.3649  -1.2759  0.2030
H       3.4965  0.1348  1.4209
H       0.7032  -1.1145  1.7583
H       1.6381  0.9257  1.5583
H       -1.4625  -0.9072  -1.6252
