27

Co      0.0000  0.0000  0.0000
Cl      0.0374  -2.3777  -0.3104
Cl      0.0687  2.2651  0.1871
N       -1.4696  0.0667  -1.4457
N       -1.4739  -0.2199  1.4143
N       1.5926  0.0742  -1.3412
N       1.5076  -0.0929  1.2469
C       -2.8052  0.3376  -0.7094
C       -2.8110  -0.5021  0.7053
C       2.9406  0.4323  -0.6522
C       2.6170  -0.4276  0.6090
H       -1.2466  0.8888  -1.9836
H       -3.3459  1.4211  -0.6853
H       -3.6982  0.2565  -1.3846
H       -3.5239  0.1055  1.3446
H       -2.6839  -1.5855  0.6721
H       -1.8811  0.7290  1.7582
H       -1.8675  -0.9364  2.2584
H       1.5002  -0.6899  -2.0244
H       1.3095  0.7051  -2.0968
H       3.5640  -0.0938  -1.4360
H       2.9819  1.5074  -0.5289
H       2.2083  -1.5562  0.7295
H       3.6357  -0.3355  1.0812
H       1.2207  -0.7265  1.9841
H       2.0053  0.8469  1.5489
H       -1.8716  -0.5557  -2.3406
