27

Co      0.0000  0.0000  0.0000
Cl      -0.0206  -2.2411  -0.1937
Cl      0.0709  2.1982  0.2343
N       -1.5727  0.1405  -1.3520
N       -1.5221  -0.3120  1.4522
N       1.5257  0.1008  -1.2355
N       1.5008  -0.0929  1.3641
C       -2.6776  0.2553  -0.4566
C       -2.6812  -0.5107  0.7034
C       2.7271  0.3772  -0.5677
C       2.8678  -0.4521  0.8046
H       -0.9736  0.7285  -2.0539
H       -2.5639  1.3624  -0.4242
H       -3.5189  0.5367  -1.3131
H       -3.7568  -0.1703  0.9766
H       -2.6995  -1.5306  0.3206
H       -0.9242  0.5650  2.0212
H       -1.5036  -0.8914  2.3332
H       1.4507  -1.0581  -1.2749
H       1.6231  0.8323  -1.9579
H       3.5252  0.4482  -1.3892
H       3.0090  1.5024  -0.6783
H       2.7670  -1.4823  0.4358
H       3.6760  -0.4681  1.5941
H       1.0411  -0.8356  1.9122
H       1.6947  0.7098  1.9560
H       -1.1911  -1.0522  -1.3112
