27

Co      0.0000  0.0000  0.0000
Cl      -0.0119  -2.2067  -0.1380
Cl      0.0295  2.3201  0.2305
N       -1.3494  0.1690  -1.3697
N       -1.4108  -0.2250  1.2453
N       1.4667  0.2487  -1.3488
N       1.4239  -0.1238  1.2235
C       -2.8924  0.6172  -0.7393
C       -2.8332  -0.4035  0.7154
C       2.6950  0.4767  -0.6141
C       3.0033  -0.3461  0.5710
H       -1.5128  1.3347  -1.6332
H       -2.7790  1.6872  -0.5582
H       -3.6539  0.1309  -1.3724
H       -3.8241  -0.2523  1.1902
H       -2.4090  -1.5184  0.6204
H       -0.9896  0.6505  1.7868
H       -1.7649  -0.9842  2.0338
H       1.8483  -0.4898  -2.0439
H       1.2811  0.7381  -2.3000
H       3.8288  0.1078  -0.8036
H       3.2100  1.5998  -0.8714
H       2.9227  -1.4085  0.4172
H       3.5545  0.2761  1.4034
H       0.7035  -0.7950  1.8135
H       1.2828  0.8205  1.6033
H       -1.7509  -0.5676  -2.0446
