27

Co      0.0000  0.0000  0.0000
Cl      0.0701  -2.2751  -0.2217
Cl      0.0120  2.2335  0.1868
N       -1.5790  0.0926  -1.3397
N       -1.4274  -0.1388  1.4335
N       1.3916  0.1855  -1.1926
N       1.3767  -0.1268  1.3003
C       -2.7845  0.4653  -0.5572
C       -2.7339  -0.3941  0.5270
C       2.7670  0.3838  -0.5337
C       2.7758  -0.4456  0.5874
H       -1.0814  1.0203  -1.6746
H       -2.3265  1.5071  -0.2788
H       -3.2556  -0.0580  -1.5341
H       -3.8482  0.0032  0.7180
H       -2.7000  -1.4324  0.2510
H       -1.2889  0.7160  1.9734
H       -1.1120  -0.8324  2.1046
H       1.3179  -0.5521  -1.9593
H       1.7497  0.8718  -2.0853
H       3.5087  0.0790  -1.2538
H       2.9396  1.5047  -0.6457
H       2.5768  -1.5748  0.6992
H       3.7450  -0.1817  1.0571
H       1.5991  -0.7112  2.2613
H       1.9683  0.5793  2.0138
H       -2.3339  -0.8680  -1.5830
