27

Co      0.0000  0.0000  0.0000
Cl      -0.0239  -2.3637  -0.1921
Cl      0.0132  2.2648  0.3076
N       -1.4033  -0.0390  -1.2323
N       -1.4948  -0.0908  1.3503
N       1.3679  0.1620  -1.1820
N       1.5770  -0.1183  1.4076
C       -2.7330  0.4055  -0.6119
C       -2.7063  -0.3729  0.5305
C       2.9337  0.3907  -0.5776
C       2.7089  -0.3992  0.5920
H       -1.8666  0.9476  -1.7724
H       -2.6955  1.4167  -0.1836
H       -3.6819  -0.2048  -0.9484
H       -3.5184  -0.4029  1.2931
H       -2.8613  -1.4705  0.4978
H       -1.7034  0.9546  1.5344
H       -1.4792  -0.8248  2.0544
H       0.8271  -0.5895  -1.9455
H       0.9816  0.8599  -1.8373
H       3.4452  -0.1497  -1.5130
H       2.6890  1.4723  -0.4606
H       2.3810  -1.4923  0.5422
H       3.6358  -0.1525  1.0886
H       1.2161  -0.7434  2.1499
H       1.6039  0.9370  1.5841
H       -0.9836  -0.7933  -1.9888
