27

Co      0.0000  0.0000  0.0000
Cl      0.0386  -2.2739  -0.1778
Cl      0.0723  2.1328  0.2145
N       -1.3777  0.1506  -1.4138
N       -1.4634  -0.1712  1.3750
N       1.4815  0.2388  -1.1704
N       1.5482  -0.1095  1.2851
C       -2.7463  0.3398  -0.5843
C       -2.7733  -0.3420  0.5115
C       2.7148  0.3518  -0.7123
C       2.6968  -0.3227  0.6058
H       -1.3171  0.9461  -2.0255
H       -2.7588  1.4115  -0.4902
H       -3.6085  0.3224  -1.3036
H       -3.3495  -0.2219  1.5251
H       -2.9973  -1.4389  0.5435
H       -1.4828  0.5353  2.1545
H       -1.1104  -1.0553  1.8154
H       1.3553  -0.4974  -1.9190
H       1.7230  0.9003  -2.0468
H       3.7260  0.1419  -1.1337
H       3.3126  1.3932  -0.5167
H       2.9285  -1.3773  0.4236
H       3.4369  0.1423  1.2753
H       1.0077  -0.9748  1.6874
H       2.0470  0.7602  1.7057
H       -2.0024  -0.6445  -1.9789
