27

Co      0.0000  0.0000  0.0000
Cl      0.0508  -2.1951  -0.2016
Cl      0.0658  2.3239  0.1689
N       -1.4687  0.1968  -1.3874
N       -1.5177  -0.0853  1.1772
N       1.4191  0.1624  -1.3893
N       1.4809  -0.2593  1.3072
C       -2.6286  0.3204  -0.6134
C       -2.6418  -0.2822  0.5994
C       2.5992  0.4387  -0.6271
C       2.8628  -0.2550  0.5749
H       -1.5157  1.2184  -1.7881
H       -2.7582  1.4266  -0.5599
H       -3.3528  0.8020  -1.6897
H       -3.5138  -0.0460  1.1890
H       -2.5232  -1.3291  0.3754
H       -1.6036  0.7225  1.7536
H       -1.3644  -0.8831  1.7563
H       1.9183  -0.7406  -1.7667
H       0.9949  0.9726  -1.8937
H       3.4187  0.5043  -1.4292
H       2.4205  1.5267  -0.5295
H       2.7011  -1.2891  0.2262
H       3.9644  -0.1882  0.9354
H       1.2518  -0.9570  1.9963
H       1.2604  0.5601  1.9238
H       -1.2546  -0.4833  -2.2200
