27

Co      0.0000  0.0000  0.0000
Cl      -0.1032  -2.3801  -0.3015
Cl      -0.0407  2.2408  0.1811
N       -1.5837  0.0861  -1.4248
N       -1.4409  -0.2575  1.2181
N       1.3290  -0.0568  -1.3968
N       1.2667  -0.1432  1.2741
C       -2.7974  0.3459  -0.6893
C       -2.7917  -0.5382  0.5842
C       2.7427  0.3779  -0.6932
C       2.7195  -0.4011  0.5762
H       -1.2421  0.7005  -2.1678
H       -2.8747  1.3894  -0.3759
H       -3.5942  0.2094  -1.4272
H       -3.4520  0.3520  1.1748
H       -2.2665  -1.6808  0.7535
H       -1.7291  0.6472  1.6212
H       -1.6680  -1.1296  1.8309
H       1.4497  -0.7361  -2.2207
H       1.1959  0.7847  -1.9464
H       3.4982  0.2489  -1.4689
H       2.6743  1.3621  -0.1142
H       2.5818  -1.4525  0.3752
H       3.5822  -0.4289  1.2866
H       1.2851  -0.6116  2.2951
H       1.1624  0.7350  1.7883
H       -1.5273  -0.9893  -1.5784
