27

Co      0.0000  0.0000  0.0000
Cl      0.0567  -2.1444  -0.2815
Cl      0.0372  2.3860  0.1697
N       -1.5480  0.0629  -1.3363
N       -1.3308  -0.1605  1.3754
N       1.4681  0.1937  -1.5009
N       1.4065  -0.0570  1.4291
C       -2.8255  0.4398  -0.6080
C       -2.7880  -0.3101  0.5700
C       2.6732  0.4776  -0.6118
C       2.7738  -0.4959  0.7149
H       -1.3564  0.7319  -2.0658
H       -2.5329  1.5993  -0.9046
H       -3.7352  0.0229  -1.0742
H       -3.4170  -0.2530  1.5355
H       -2.7338  -1.3307  0.1194
H       -1.7204  0.7477  1.7874
H       -1.6051  -0.9940  2.0494
H       1.4855  -0.6251  -2.0928
H       1.5485  0.8548  -2.3114
H       3.7799  0.3352  -0.9498
H       2.9754  1.6035  -0.7749
H       2.0638  -1.5384  0.2720
H       3.9193  -0.7321  1.1470
H       1.3560  -0.7937  2.1205
H       1.4641  0.8475  1.8794
H       -1.3597  -0.7971  -1.8511
