27

Co      0.0000  0.0000  0.0000
Cl      0.0268  -2.3421  -0.1377
Cl      -0.0691  2.2396  0.2306
N       -1.4354  0.1269  -1.3730
N       -1.3805  -0.1230  1.2992
N       1.5184  0.1826  -1.3513
N       1.4674  -0.3711  1.1734
C       -2.7952  0.4201  -0.6810
C       -2.8198  -0.4565  0.6525
C       2.7770  0.3875  -0.5044
C       2.8631  -0.5637  0.6923
H       -0.5504  0.8738  -1.8125
H       -2.7970  1.4493  -0.3788
H       -3.5970  -0.0494  -1.2444
H       -3.6289  -0.1769  1.3163
H       -2.5833  -1.5135  0.4177
H       -1.2354  0.6270  2.0134
H       -1.2082  -0.7201  2.1276
H       1.9998  -0.7067  -1.7767
H       1.5889  0.8990  -2.0972
H       3.3906  0.0854  -1.4203
H       3.0098  1.6106  -1.1192
H       2.5410  -1.5659  0.1475
H       3.8856  -0.0089  0.9477
H       1.5730  -1.0070  2.0408
H       1.6524  0.4205  1.7898
H       -1.6886  -0.9051  -1.5504
