27

Co      0.0000  0.0000  0.0000
Cl      0.1201  -2.2439  -0.2957
Cl      0.0326  2.3748  0.1573
N       -1.4724  0.3494  -1.4643
N       -1.4100  -0.0789  1.2606
N       1.4324  0.2516  -1.5208
N       1.4043  -0.0463  1.3656
C       -2.7260  0.4936  -0.7177
C       -2.7409  -0.3240  0.6228
C       2.7258  0.3701  -0.6555
C       2.8478  -0.4271  0.6546
H       -1.1596  0.9587  -2.2316
H       -2.9540  1.5612  -0.5612
H       -3.3233  0.2632  -1.6551
H       -3.4317  0.2193  1.3369
H       -1.9857  -1.5108  0.9567
H       -1.1994  0.7717  1.7998
H       -1.7471  -1.0182  1.8113
H       1.7140  -0.4196  -2.3352
H       1.3546  0.8267  -2.3853
H       3.4047  0.0854  -1.4701
H       2.6211  1.4528  -0.5818
H       3.0304  -1.4768  0.5072
H       3.8218  -0.0940  1.0900
H       1.5107  -0.6840  2.1965
H       1.7408  1.0311  1.5032
H       -1.1538  -0.6706  -1.7205
