27

Co      0.0000  0.0000  0.0000
Cl      -0.0238  -2.2663  -0.3031
Cl      0.0032  2.3283  0.1821
N       -1.5174  0.2818  -1.3970
N       -1.4369  -0.0282  1.3528
N       1.5769  0.1901  -1.3038
N       1.5267  -0.0984  1.3306
C       -2.9239  0.3711  -0.7108
C       -2.7332  -0.3379  0.4963
C       2.8793  0.3790  -0.6509
C       2.7796  -0.2656  0.5682
H       -1.9797  0.8444  -2.4615
H       -2.3834  1.4083  -0.2688
H       -3.9779  0.0703  -1.0329
H       -3.6696  -0.2332  1.0752
H       -2.8764  -1.4440  0.5345
H       -1.8525  0.8588  1.7723
H       -1.3338  -0.6751  2.1409
H       1.5290  -0.9393  -1.3686
H       1.1791  0.7452  -2.0927
H       3.5480  -0.0121  -1.4525
H       3.1992  1.4220  -0.4857
H       3.2109  -1.2354  0.0591
H       3.6637  0.3598  0.9635
H       1.7955  -0.8767  2.0579
H       1.8443  0.9364  1.5311
H       -1.3414  -0.3842  -2.2822
