27

Co      0.0000  0.0000  0.0000
Cl      -0.0265  -2.2767  -0.1796
Cl      -0.0185  2.2990  0.2905
N       -1.3593  0.0301  -1.2930
N       -1.5266  -0.0617  1.3810
N       1.3890  0.2977  -1.2654
N       1.5343  -0.0056  1.5257
C       -2.7946  0.4749  -0.5317
C       -2.7102  -0.3326  0.7150
C       2.6542  0.3881  -0.6818
C       2.6212  -0.3881  0.6845
H       -1.1852  0.9797  -1.7196
H       -2.7871  1.5423  -0.3851
H       -3.5981  0.0333  -1.1302
H       -3.7214  0.1305  0.9923
H       -2.4702  -1.2763  -0.0635
H       -1.7474  0.6289  2.1698
H       -1.6027  -0.8193  2.0944
H       1.5396  -0.3313  -2.1825
H       1.6182  0.9450  -2.1527
H       3.4023  -0.0960  -1.3203
H       3.1796  1.4733  -0.6794
H       2.9959  -1.4678  0.6726
H       3.2035  0.1901  1.5067
H       1.3955  -1.1115  1.7588
H       1.7383  0.9441  1.8465
H       -1.5361  -0.5897  -2.1943
