27

Co      0.0000  0.0000  0.0000
Cl      -0.0049  -2.2565  -0.2596
Cl      0.0469  2.4116  0.2253
N       -1.3608  0.1970  -1.2782
N       -1.5884  -0.0283  1.3969
N       1.5996  0.3144  -1.3391
N       1.4249  0.0079  1.4980
C       -2.8584  0.5158  -0.6586
C       -2.8358  -0.3809  0.6599
C       2.6664  0.4798  -0.7801
C       2.8005  -0.3905  0.6424
H       -2.0623  1.0162  -2.0810
H       -3.0056  1.5520  -0.3299
H       -3.6190  -0.1133  -1.2377
H       -3.6493  -0.0614  1.2892
H       -2.7190  -1.4142  0.2568
H       -1.6690  1.0711  1.5018
H       -1.6845  -0.5515  2.3702
H       1.9765  -0.2986  -2.2317
H       1.0574  0.6527  -2.3537
H       3.7394  0.1384  -1.0832
H       2.4771  1.5501  -0.7019
H       2.7151  -1.3616  -0.0360
H       3.4867  -0.1221  1.4389
H       1.1912  -0.7449  2.1242
H       1.8774  0.9371  1.8616
H       -1.3530  -0.7941  -1.5875
