27

Co      0.0000  0.0000  0.0000
Cl      -0.0541  -2.2283  -0.2602
Cl      0.0204  2.3667  0.1587
N       -1.4487  0.2492  -1.3721
N       -1.4523  -0.1218  1.3031
N       1.2549  0.1417  -1.5133
N       1.4662  -0.0430  1.3370
C       -2.8424  0.4134  -0.7220
C       -2.7205  -0.3858  0.4883
C       2.6076  0.3913  -0.5477
C       2.7437  -0.2723  0.5698
H       -1.5404  0.9573  -2.1602
H       -2.8153  1.5019  -0.6689
H       -3.6179  0.1319  -1.4256
H       -3.7829  -0.4179  0.9593
H       -2.7339  -1.5110  0.5874
H       -1.8794  0.6594  1.9190
H       -1.4814  -0.8921  1.9833
H       1.6794  -0.6789  -2.0553
H       1.4748  1.1080  -2.0113
H       3.2053  0.0729  -1.4592
H       2.7654  1.4572  -0.4617
H       2.6485  -1.2383  0.0136
H       3.6472  0.1409  1.0220
H       1.0223  -0.8125  1.8722
H       1.7354  0.7473  1.9304
H       -1.9079  -0.2934  -2.3868
