27

Co      0.0000  0.0000  0.0000
Cl      0.0448  -2.1927  -0.1726
Cl      0.0460  2.3298  0.2837
N       -1.6005  0.1514  -1.3153
N       -1.5169  -0.2050  1.4975
N       1.5842  0.1036  -1.3129
N       1.5437  -0.0001  1.4429
C       -2.8168  0.5598  -0.6455
C       -2.7630  -0.3204  0.7151
C       2.7212  0.3763  -0.5618
C       2.7161  -0.3755  0.7178
H       -1.6161  0.7746  -2.1738
H       -3.0022  1.6137  -0.4724
H       -3.5513  -0.0241  -1.2739
H       -3.6885  -0.5278  1.4356
H       -2.8525  -1.3580  0.3886
H       -1.9141  0.6211  2.0327
H       -0.7325  -0.7264  2.2254
H       1.5926  -0.9173  -1.5456
H       1.1691  0.8376  -1.8847
H       3.6401  0.7050  -1.3346
H       3.3012  1.3920  -0.2050
H       3.0524  -1.3888  0.4151
H       3.6997  0.1001  1.0560
H       1.0868  -1.0715  1.6147
H       1.7665  0.7368  2.1404
H       -1.6254  -0.6628  -1.9221
