27

Co      0.0000  0.0000  0.0000
Cl      -0.1035  -2.1864  -0.1292
Cl      -0.0438  2.2144  0.2712
N       -1.3889  0.1779  -1.1735
N       -1.3916  -0.2278  1.4452
N       1.4663  0.1806  -1.1878
N       1.4630  -0.0558  1.4762
C       -2.8772  0.4601  -0.5987
C       -2.7978  -0.5543  0.7157
C       2.7913  0.2968  -0.5590
C       2.7549  -0.3865  0.6609
H       -1.2491  0.8298  -1.9619
H       -2.8453  1.5424  -0.5640
H       -3.7886  -0.3471  -0.9075
H       -3.5565  -0.1665  1.3950
H       -3.1945  -1.6113  0.5799
H       -1.5087  0.7748  1.7094
H       -0.6182  -0.7811  2.1484
H       1.5148  -0.8923  -1.3242
H       0.8680  0.9751  -1.6426
H       3.6477  0.7011  -1.4386
H       3.0019  1.3717  -0.4197
H       2.7616  -1.5924  1.1666
H       3.5890  -0.2866  1.3656
H       0.9841  -0.9563  1.8455
H       1.6610  0.7148  2.1003
H       -1.7844  -0.3564  -2.2220
