27

Co      0.0000  0.0000  0.0000
Cl      0.0189  -2.1747  -0.2362
Cl      0.0222  2.3574  0.1883
N       -1.5559  0.1277  -1.3037
N       -1.5515  -0.1107  1.3098
N       1.5074  0.2591  -1.4659
N       1.6139  -0.0623  1.3918
C       -2.7368  0.5336  -0.7327
C       -2.8469  -0.4711  0.4785
C       2.7968  0.3505  -0.8788
C       2.6148  -0.3269  0.6100
H       -1.1627  0.7973  -1.9924
H       -2.9838  1.6392  -0.8028
H       -3.8946  0.0971  -0.8775
H       -3.7753  -0.2079  0.9779
H       -2.7537  -1.5957  0.5116
H       -1.7097  0.6062  2.0299
H       -0.9958  -1.1071  1.5731
H       1.7791  -0.6276  -1.9146
H       1.8263  1.2201  -1.9882
H       3.6488  -0.1346  -1.3892
H       2.8249  1.3864  -0.5830
H       2.9275  -1.4077  0.5420
H       3.6154  -0.3876  1.1676
H       0.8685  -0.6667  2.0378
H       1.5493  0.7762  1.9367
H       -1.7281  -0.5436  -2.1145
