27

Co      0.0000  0.0000  0.0000
Cl      -0.0336  -2.3876  -0.2555
Cl      0.0496  2.3638  0.1483
N       -1.3617  0.2522  -1.3523
N       -1.5266  -0.1721  1.2811
N       1.5047  0.2716  -1.4096
N       1.5625  -0.0923  1.3545
C       -2.7269  0.3411  -0.6187
C       -2.7330  -0.4115  0.6321
C       2.7302  0.4769  -0.6280
C       2.6743  -0.3072  0.6196
H       -1.4953  1.0923  -1.9574
H       -2.5912  1.3098  0.0421
H       -3.5843  0.0330  -1.1960
H       -3.5162  -0.2648  1.3762
H       -3.0510  -1.4210  0.2475
H       -1.8025  0.7075  1.7492
H       -1.4793  -0.9469  1.9303
H       1.2631  -0.7475  -1.6933
H       1.0931  0.4758  -2.6165
H       3.6394  0.3570  -1.2138
H       3.1240  1.4695  -0.1682
H       2.6207  -1.4777  0.9315
H       3.6398  -0.6275  1.3699
H       1.3824  -0.8065  2.0051
H       2.1134  0.9482  1.5099
H       -1.9258  -0.4071  -2.1432
