27

Co      0.0000  0.0000  0.0000
Cl      0.0775  -2.2403  -0.2794
Cl      -0.0007  2.3827  0.1631
N       -1.4145  0.1409  -1.2793
N       -1.5957  -0.1338  1.2029
N       1.4447  0.1178  -1.3165
N       1.5048  -0.1879  1.2605
C       -2.7696  0.3076  -0.8105
C       -2.6839  -0.2934  0.7755
C       2.8001  0.4367  -0.7176
C       2.7744  -0.4172  0.5308
H       -1.5498  1.2630  -1.5737
H       -2.4578  1.3055  -0.2655
H       -3.6310  -0.3598  -1.2143
H       -3.5578  0.1255  1.2722
H       -2.9050  -1.3073  0.4016
H       -1.6723  0.5275  2.0481
H       -1.6709  -0.8655  1.9476
H       2.0712  -0.5408  -2.1118
H       1.4060  0.8972  -1.9768
H       3.5863  -0.2512  -1.2256
H       3.4068  1.4062  -0.2390
H       2.5914  -1.5468  0.5904
H       3.5916  -0.7146  1.4260
H       1.3729  -0.7896  2.0908
H       1.2221  0.8492  1.4943
H       -1.8887  -0.4627  -2.1844
