27

Co      0.0000  0.0000  0.0000
Cl      -0.0673  -2.1905  -0.1780
Cl      0.0356  2.3508  0.2405
N       -1.6256  0.2109  -1.4828
N       -1.5783  -0.1710  1.2999
N       1.5101  0.1204  -1.4862
N       1.3406  0.0068  1.3559
C       -2.8188  0.3984  -0.6608
C       -2.9082  -0.4593  0.6904
C       2.6496  0.5640  -0.5779
C       2.6922  -0.3083  0.5629
H       -0.6277  0.9966  -1.8357
H       -2.6485  1.4721  -0.5018
H       -3.7538  0.5335  -1.3320
H       -3.7948  -0.4707  1.3807
H       -3.1927  -1.4991  0.4280
H       -1.3532  0.5963  2.0184
H       -1.4523  -0.8900  1.9963
H       1.4648  -0.9016  -1.7234
H       1.2651  1.0857  -1.8382
H       3.1193  -0.1748  -1.4691
H       2.3230  1.6764  -0.7034
H       2.8293  -1.3099  0.0912
H       3.5888  -0.4725  1.3071
H       0.7727  -0.7076  1.9108
H       1.7231  0.7312  2.0623
H       -1.4835  -0.6460  -1.9870
