27

Co      0.0000  0.0000  0.0000
Cl      -0.0395  -2.3334  -0.2035
Cl      0.0180  2.2285  0.2108
N       -1.5077  0.1065  -1.4233
N       -1.5200  -0.1828  1.3259
N       1.5990  0.0818  -1.3117
N       1.4988  -0.2288  1.5349
C       -2.6981  0.4071  -0.6277
C       -2.5193  -0.5172  0.7016
C       2.7232  0.3146  -0.4944
C       2.7688  -0.3962  0.5263
H       -1.2866  0.8983  -1.9869
H       -2.8683  1.3774  -0.0387
H       -3.1422  -0.2485  -1.5801
H       -3.4691  -0.5739  1.3128
H       -2.0339  -1.5489  0.3024
H       -1.4278  0.7534  1.6988
H       -0.9947  -0.6887  2.1363
H       1.7888  -0.5594  -2.1801
H       1.4645  0.8360  -1.9462
H       3.0708  -0.0468  -1.7215
H       2.4204  1.4788  -0.8314
H       2.6406  -1.4197  0.1446
H       3.5092  -0.3373  1.3466
H       1.4619  -1.0344  2.1390
H       1.6583  0.6222  2.0451
H       -1.6576  -0.9554  -1.5739
