27

Co      0.0000  0.0000  0.0000
Cl      0.0371  -2.2603  -0.1432
Cl      -0.0048  2.2550  0.2912
N       -1.4395  0.1490  -1.2287
N       -1.5494  -0.2647  1.4825
N       1.3231  0.0889  -1.2692
N       1.4130  -0.1635  1.3092
C       -2.8481  0.2810  -0.6200
C       -3.0209  -0.4141  0.6392
C       2.8802  0.3878  -0.6928
C       2.7032  -0.4939  0.8456
H       -1.2227  0.8203  -1.9318
H       -2.7658  1.3026  -0.2009
H       -3.9017  0.3137  -1.1083
H       -3.7213  0.0478  1.3368
H       -2.6510  -1.3807  -0.0624
H       -1.6728  0.7468  1.7428
H       -1.4925  -0.9028  2.2914
H       1.1215  -0.6324  -2.0621
H       1.1965  0.5452  -2.2908
H       3.5499  -0.2175  -1.3856
H       3.2442  1.3934  -0.2367
H       2.5943  -1.5069  0.3810
H       3.7582  -0.2062  1.1769
H       1.5132  -1.0771  1.8368
H       1.5658  0.6427  1.8943
H       -1.1767  -1.0380  -1.2145
