27

Co      0.0000  0.0000  0.0000
Cl      0.0473  -2.2084  -0.2483
Cl      0.1361  2.3868  0.1760
N       -1.4112  0.1447  -1.2702
N       -1.5601  -0.2124  1.4596
N       1.6446  0.2098  -1.3562
N       1.6026  -0.0870  1.3584
C       -2.8887  0.2983  -0.6200
C       -2.6101  -0.2867  0.6212
C       2.8908  0.5686  -0.6987
C       2.8090  -0.4341  0.6893
H       -1.2642  1.0830  -1.6909
H       -2.6922  1.4960  -1.0702
H       -3.4169  0.1979  -1.7467
H       -3.3656  0.2786  1.2145
H       -2.8569  -1.2930  0.3332
H       -2.1757  0.5558  2.0713
H       -1.1489  -0.7164  2.3037
H       1.6707  -0.6672  -1.8352
H       1.4545  1.0028  -1.9395
H       3.5696  0.4610  -1.6353
H       3.0649  1.6457  -0.5933
H       3.4044  -1.4599  0.4186
H       3.5877  -0.4545  1.5306
H       1.3746  -0.9728  1.8104
H       1.5902  0.7595  1.8738
H       -1.5330  -0.5710  -2.0260
