27

Co      0.0000  0.0000  0.0000
Cl      -0.0622  -2.2405  -0.2280
Cl      -0.1040  2.1965  0.2275
N       -1.4349  0.1343  -1.1624
N       -1.6892  -0.1501  1.4927
N       1.3992  0.1096  -1.2746
N       1.3656  -0.1039  1.3988
C       -2.8042  0.4869  -0.6782
C       -2.7759  -0.3596  0.6150
C       2.6821  0.2755  -0.7673
C       2.6926  -0.3983  0.7141
H       -1.2332  0.8840  -1.8023
H       -2.9683  1.4695  -0.1996
H       -3.6336  -0.3195  -1.0633
H       -3.6168  -0.0794  1.2176
H       -3.3136  -1.3611  0.2321
H       -1.7764  0.5114  2.3188
H       -1.1496  -0.9886  1.9367
H       1.3196  -0.6932  -1.8883
H       0.9077  0.9025  -1.7689
H       4.0418  0.5139  -0.9510
H       2.6357  1.4167  -0.9084
H       3.0796  -1.4574  0.4772
H       3.4435  -0.0840  1.4041
H       1.6207  -0.8698  2.1598
H       1.6076  0.7838  1.8581
H       -1.6018  -0.7492  -1.6350
