27

Co      0.0000  0.0000  0.0000
Cl      -0.0496  -2.3870  -0.2816
Cl      -0.0151  2.2851  0.1903
N       -1.5554  0.0409  -1.4087
N       -1.6437  -0.2091  1.4811
N       1.3194  0.0294  -1.3521
N       1.3325  -0.2909  1.3877
C       -2.8788  0.3887  -0.7118
C       -2.9140  -0.5675  0.6820
C       2.8369  0.3746  -0.7400
C       2.6751  -0.3555  0.6637
H       -1.6911  0.8766  -2.0236
H       -2.5356  1.4057  -0.2981
H       -3.4521  -0.2467  -1.5236
H       -3.6683  -0.1105  1.3161
H       -3.1819  -1.5152  0.0255
H       -1.8124  0.6328  1.9970
H       -0.9999  -1.0621  1.8712
H       1.1631  -0.6378  -2.2379
H       1.5265  0.6613  -2.2588
H       3.5180  -0.3285  -1.3837
H       3.4641  1.3870  -0.4135
H       2.5643  -1.4476  0.6191
H       3.5669  0.0721  1.1393
H       1.6831  -1.0434  2.1563
H       1.6821  0.6454  1.7529
H       -1.3118  -0.8528  -1.8891
