27

Co      0.0000  0.0000  0.0000
Cl      -0.0520  -2.1753  -0.2526
Cl      -0.1498  2.2421  0.1317
N       -1.4554  0.2356  -1.4141
N       -1.5993  0.0077  1.2299
N       1.3923  0.1341  -1.4079
N       1.4015  -0.1807  1.1590
C       -2.6906  0.4531  -0.7371
C       -2.9878  -0.3819  0.6471
C       2.7671  0.4598  -0.5976
C       2.6389  -0.3747  0.4329
H       -1.4317  1.2413  -1.7888
H       -2.7777  1.4429  -0.1837
H       -3.5932  0.1167  -1.2248
H       -3.9374  -0.2459  1.1807
H       -2.6324  -1.4661  0.5147
H       -1.3758  0.6840  2.0808
H       -1.0810  -0.8159  1.7029
H       0.9173  -0.7240  -1.9710
H       1.6402  1.2938  -1.6986
H       3.3298  0.0635  -1.5037
H       3.1614  1.4827  -0.3066
H       3.1465  -1.4712  0.5160
H       3.6690  -0.2523  0.8727
H       0.8519  -0.7081  1.9546
H       1.2736  0.7106  1.6618
H       -1.2665  -0.6979  -1.8205
