27

Co      0.0000  0.0000  0.0000
Cl      -0.1109  -2.3848  -0.2082
Cl      -0.0212  2.2524  0.1994
N       -1.3269  0.0832  -1.2141
N       -1.5506  -0.2424  1.3993
N       1.4105  0.1801  -1.2491
N       1.5047  -0.1678  1.5055
C       -2.9227  0.4756  -0.5842
C       -2.6715  -0.4713  0.5783
C       2.7324  0.4055  -0.5581
C       2.7345  -0.4909  0.5907
H       -1.5311  0.6611  -2.1617
H       -2.7080  1.4727  -0.0318
H       -3.6987  0.2190  -1.2814
H       -3.5070  -1.0486  1.5776
H       -2.9438  -1.5858  0.6132
H       -1.4086  0.8300  1.5268
H       -1.1664  -1.2641  1.6338
H       1.5685  -0.7030  -1.7476
H       1.1358  0.6453  -2.1756
H       3.4692  -0.1472  -1.2196
H       2.6882  1.4781  -0.5006
H       3.1135  -1.5192  0.3534
H       3.5396  0.2497  1.0404
H       1.1839  -0.6322  2.4235
H       1.4040  0.8641  1.7724
H       -1.3153  -0.8541  -1.6152
