27

Co      0.0000  0.0000  0.0000
Cl      0.0437  -2.2771  -0.1860
Cl      -0.0121  2.3293  0.3022
N       -1.3449  0.0188  -1.3378
N       -1.3468  -0.0630  1.2929
N       1.3646  0.1624  -1.3617
N       1.5520  -0.1262  1.2024
C       -2.5673  0.3702  -0.6652
C       -2.7154  -0.2606  0.6924
C       2.8126  0.5851  -0.6235
C       2.8994  -0.5290  0.6967
H       -1.5459  0.8021  -2.0441
H       -2.3959  1.4715  -0.6538
H       -3.4472  0.3420  -1.3159
H       -3.8435  -0.0245  0.9412
H       -3.1875  -1.2921  0.4093
H       -1.3471  0.9017  1.6320
H       -0.8115  -1.0432  1.5457
H       1.3973  -0.8451  -1.6522
H       1.8261  0.7733  -2.3649
H       3.7334  -0.3386  -0.8532
H       2.4136  1.6491  -0.4150
H       3.1422  -1.5336  0.2014
H       3.8057  -0.3427  1.2805
H       1.4782  -0.7049  2.1020
H       1.5438  0.4623  2.2100
H       -1.4792  -0.8317  -1.8427
