27

Co      0.0000  0.0000  0.0000
Cl      -0.0957  -2.3272  -0.1637
Cl      -0.0845  2.3210  0.2464
N       -1.4654  0.2157  -1.3252
N       -1.3986  -0.2201  1.2933
N       1.4034  0.2379  -1.2740
N       1.4692  -0.1472  1.2824
C       -2.8064  0.4437  -0.7123
C       -2.9435  -0.4511  0.7149
C       2.7632  0.4543  -0.6927
C       2.5261  -0.3718  0.6739
H       -1.1321  0.6301  -2.3073
H       -2.9105  1.5182  -0.6915
H       -3.5342  -0.2535  -1.3157
H       -3.3048  0.1799  1.7935
H       -3.1568  -1.3834  -0.0814
H       -1.5369  0.7052  1.6959
H       -1.6685  -0.9650  2.0717
H       1.5764  -0.8107  -1.4496
H       0.8884  0.8339  -1.9664
H       3.6287  -0.0360  -1.1844
H       2.9391  1.5730  -0.8371
H       2.8527  -1.3836  0.2499
H       3.4924  -0.3347  1.2448
H       1.3130  -0.9644  1.8382
H       1.8732  0.6853  1.7965
H       -1.5794  -0.5182  -2.0528
