27

Co      0.0000  0.0000  0.0000
Cl      -0.0991  -2.3459  -0.2062
Cl      -0.1232  2.3476  0.1927
N       -1.5733  0.1376  -1.4295
N       -1.4890  -0.2691  1.2189
N       1.4767  0.2095  -1.3028
N       1.3708  -0.0576  1.2687
C       -2.8908  0.4994  -0.5497
C       -2.9324  -0.3555  0.7793
C       2.6996  0.3574  -0.6232
C       2.6012  -0.3679  0.6513
H       -1.4009  1.1374  -1.7718
H       -3.0134  1.5456  -0.2234
H       -3.8907  0.4637  -1.0708
H       -3.7878  -0.1895  1.4182
H       -2.7025  -1.3093  0.0019
H       -1.1941  0.8159  1.3858
H       -1.0578  -1.0222  1.7829
H       1.1346  -0.5439  -2.0389
H       0.8875  0.9744  -1.7976
H       3.7606  0.3311  -1.0457
H       3.2665  1.3396  -0.1138
H       2.7794  -1.4187  0.4627
H       3.3782  -0.3912  1.4877
H       1.0730  -0.5765  2.1432
H       1.7365  0.9398  1.5474
H       -0.9781  -0.7319  -1.9688
