27

Co      0.0000  0.0000  0.0000
Cl      -0.0945  -2.2372  -0.2265
Cl      -0.0370  2.3321  0.2572
N       -1.4855  0.0941  -1.4782
N       -1.3313  -0.1328  1.1637
N       1.5512  0.1327  -1.4647
N       1.4812  -0.0348  1.3730
C       -2.7338  0.4636  -0.8058
C       -2.8165  -0.4318  0.7289
C       2.6830  0.4974  -0.7777
C       2.8068  -0.3191  0.6092
H       -1.3245  1.1847  -1.7194
H       -2.6969  1.6350  -1.1270
H       -3.7113  0.4148  -1.3591
H       -3.6513  -0.0276  1.2902
H       -3.3203  -1.4498  0.3981
H       -1.9779  0.3736  2.2287
H       -1.2708  -1.0683  1.6413
H       1.2183  -0.8505  -1.8043
H       1.5223  0.7154  -2.3571
H       3.4854  0.2713  -1.4469
H       2.9792  1.5348  -0.4952
H       2.3846  -1.4260  0.5948
H       3.8563  0.1219  0.8888
H       1.1807  -0.7579  2.0095
H       1.4531  0.6689  2.1492
H       -1.9883  -0.6617  -2.1043
