27

Co      0.0000  0.0000  0.0000
Cl      -0.0659  -2.2633  -0.2251
Cl      -0.0268  2.2077  0.2265
N       -1.6034  0.1154  -1.3180
N       -1.5345  -0.3220  1.2408
N       1.3264  0.0668  -1.4619
N       1.1286  -0.0643  1.1809
C       -2.8449  0.3831  -0.7037
C       -2.8063  -0.4656  0.7539
C       2.6395  0.2687  -0.6223
C       2.7734  -0.3423  0.8064
H       -1.4406  0.9048  -1.9276
H       -2.7158  1.4406  -0.4561
H       -3.7273  -0.2350  -1.1062
H       -3.6172  0.2297  1.2174
H       -2.6674  -1.4682  0.2736
H       -1.3202  0.3643  2.0892
H       -1.3339  -0.9792  2.0095
H       1.3541  -0.8848  -1.8248
H       1.5845  0.7744  -2.2863
H       3.3992  -0.0007  -1.3060
H       2.6297  1.2436  0.0070
H       2.6664  -1.3883  0.4927
H       3.8001  -0.4230  1.3364
H       1.3059  -0.9768  1.7278
H       1.5944  0.7017  1.8175
H       -1.4437  -0.7725  -1.7769
