27

Co      0.0000  0.0000  0.0000
Cl      -0.1088  -2.4364  -0.1513
Cl      -0.1048  2.2580  0.2535
N       -1.4942  0.1278  -1.3179
N       -1.5206  -0.2583  1.2359
N       1.5650  0.0624  -1.4052
N       1.3800  -0.1847  1.3293
C       -2.8312  0.4065  -0.5612
C       -2.8908  -0.4262  0.5446
C       2.7058  0.4060  -0.6116
C       2.6883  -0.3577  0.5746
H       -1.9563  0.9333  -2.0858
H       -2.6886  1.4225  -0.1582
H       -3.4634  -0.1504  -1.3224
H       -3.6832  -0.1847  1.2390
H       -2.7701  -1.4939  0.3999
H       -1.4471  0.4689  1.9841
H       -1.4021  -0.7604  2.2007
H       1.5391  -0.9953  -1.5751
H       1.2613  1.0582  -1.7072
H       3.3282  0.0210  -1.4689
H       3.0157  1.5405  -0.8832
H       2.4531  -1.4799  0.6061
H       3.7903  -0.2935  0.9498
H       1.1571  -1.0639  1.8118
H       1.5599  0.4998  2.1178
H       -2.0374  -0.5663  -2.0768
