27

Co      0.0000  0.0000  0.0000
Cl      0.0230  -2.2757  -0.2601
Cl      -0.0376  2.2938  0.1293
N       -1.5311  0.2086  -1.3427
N       -1.5863  -0.2053  1.4516
N       1.4628  0.1375  -1.4069
N       1.3554  -0.2114  1.2771
C       -2.8907  0.4632  -0.7953
C       -2.8677  -0.3579  0.6234
C       2.8522  0.4257  -0.5897
C       2.7753  -0.5227  0.6050
H       -1.2443  1.1276  -1.7308
H       -2.9391  1.3768  0.0678
H       -3.5917  -0.1254  -1.4461
H       -3.9616  -0.5231  1.1036
H       -2.5597  -1.3676  0.1138
H       -1.2976  0.6283  2.0403
H       -1.1560  -0.8988  2.0733
H       0.9901  -0.8690  -1.7328
H       1.2701  0.6800  -2.2766
H       3.3349  0.1210  -1.6664
H       3.1545  1.5335  -0.6741
H       3.2073  -1.5171  0.2028
H       3.5458  0.2278  1.1044
H       0.9943  -0.8571  1.9844
H       1.3833  0.6053  1.8680
H       -1.6834  -0.9277  -1.3781
