27

Co      0.0000  0.0000  0.0000
Cl      -0.0473  -2.2055  -0.2443
Cl      -0.0134  2.2761  0.2400
N       -1.4904  0.0744  -1.2322
N       -1.3549  0.0200  1.4248
N       1.5021  0.1898  -1.1614
N       1.3865  -0.0670  1.4178
C       -2.7328  0.4228  -0.6648
C       -2.7625  -0.3016  0.7518
C       2.7005  0.4833  -0.4846
C       2.8650  -0.3213  0.5930
H       -1.7218  0.9699  -1.8193
H       -2.7145  1.4944  -0.4952
H       -3.6651  0.1980  -1.1825
H       -3.7524  -0.1951  1.2269
H       -2.5909  -1.3092  0.2017
H       -1.3829  1.0840  1.5992
H       -1.5622  -0.7767  2.1242
H       1.3998  -0.4191  -2.1141
H       0.7209  0.8615  -1.7580
H       3.6467  0.4807  -1.0698
H       3.2780  1.5342  -0.3561
H       2.5838  -1.4728  0.8154
H       3.9217  -0.0443  0.9210
H       1.1246  -0.7811  2.0908
H       1.7173  0.7792  1.9342
H       -1.6550  -0.7191  -1.8452
