27

Co      0.0000  0.0000  0.0000
Cl      0.0283  -2.3710  -0.2087
Cl      0.0447  2.2444  0.1878
N       -1.3154  0.1363  -1.4506
N       -1.2305  -0.2308  1.3166
N       1.4268  0.1220  -1.2670
N       1.4144  -0.1576  1.3037
C       -2.7734  0.4178  -0.5162
C       -2.7399  -0.4401  0.7181
C       2.7931  0.4349  -0.5389
C       2.7265  -0.3613  0.6672
H       -1.1671  1.0634  -1.8680
H       -3.1595  1.4371  -0.1503
H       -3.7052  0.8765  -1.3512
H       -3.5234  -0.2541  1.4542
H       -3.0811  -1.4458  0.3231
H       -1.4796  0.6163  1.8707
H       -1.8393  -1.1324  1.9992
H       1.3577  -0.3973  -2.3761
H       1.2510  0.7639  -2.0482
H       3.7339  0.0558  -0.9788
H       2.9834  1.5297  -0.5390
H       2.5911  -1.4297  0.5335
H       3.3459  -0.1768  1.6134
H       1.0390  -0.6412  2.1898
H       1.9274  0.8881  1.4521
H       -1.4894  -0.8241  -1.7824
