27

Co      0.0000  0.0000  0.0000
Cl      -0.0158  -2.3093  -0.1823
Cl      0.0090  2.1876  0.1910
N       -1.6270  0.0474  -1.2955
N       -1.4728  -0.2038  1.4384
N       1.4791  0.1493  -1.3248
N       1.3749  -0.2853  1.4158
C       -2.8512  0.4229  -0.5991
C       -2.8221  -0.4720  0.6737
C       2.6852  0.3486  -0.5424
C       2.5405  -0.3990  0.6426
H       -1.1913  0.5357  -2.1781
H       -3.3997  1.4524  -0.3127
H       -3.9162  0.2686  -0.9881
H       -3.7478  0.0542  1.0907
H       -3.1147  -1.5615  0.6898
H       -1.8788  0.4640  2.2653
H       -1.7157  -1.2039  1.8997
H       1.2085  -0.7229  -1.8187
H       1.2961  1.2366  -1.5556
H       3.4070  0.2820  -1.3976
H       2.3289  1.3895  -0.1889
H       3.0012  -1.3779  0.1860
H       3.1829  -0.1203  1.4971
H       0.9434  -0.9149  2.1077
H       1.5995  0.7269  1.6329
H       -1.4561  -0.7120  -2.0327
