27

Co      0.0000  0.0000  0.0000
Cl      -0.0008  -2.2549  -0.2349
Cl      0.0424  2.4276  0.2304
N       -1.3823  0.1710  -1.2933
N       -1.4559  -0.0825  1.3178
N       1.6257  0.2861  -1.3278
N       1.4593  -0.1537  1.2484
C       -2.7588  0.4964  -0.8538
C       -2.5739  -0.3650  0.7089
C       2.8337  0.4798  -0.7686
C       2.7213  -0.2768  0.5184
H       -1.2609  0.8892  -1.9861
H       -2.1274  1.5551  -0.4970
H       -3.6785  -0.4339  -1.0701
H       -3.5817  0.2520  0.9530
H       -2.9374  -1.4069  0.4760
H       -1.7389  0.7121  1.8993
H       -1.2417  -0.8273  1.9628
H       1.6742  -0.7577  -1.5189
H       1.2182  0.9543  -1.9903
H       3.5761  0.2465  -1.5256
H       3.1647  1.4890  -0.3838
H       2.6839  -1.3832  0.5694
H       3.5662  0.2117  1.0233
H       1.0957  -0.5733  2.2229
H       1.8425  0.6872  1.7530
H       -1.2329  -0.7049  -1.8013
