27

Co      0.0000  0.0000  0.0000
Cl      -0.0743  -2.2433  -0.1577
Cl      -0.0589  2.3815  0.2978
N       -1.4341  0.2443  -1.2704
N       -1.3956  -0.0372  1.3465
N       1.4661  0.1995  -1.3256
N       1.4824  -0.1342  1.3550
C       -2.9257  0.3883  -0.5825
C       -2.9025  -0.2208  0.6418
C       2.8069  0.5675  -0.6600
C       2.5748  -0.2690  0.5937
H       -1.1601  0.5541  -2.3957
H       -2.6931  1.4989  -0.6404
H       -3.5247  0.0512  -1.4905
H       -3.6478  -0.0167  1.4119
H       -3.1137  -1.2067  0.1348
H       -1.4935  0.8567  1.7978
H       -1.4448  -0.7653  2.0764
H       1.4262  -0.7066  -1.7498
H       1.2689  1.3276  -1.5067
H       3.5697  0.3406  -1.4034
H       2.7505  1.6383  -0.4706
H       2.4233  -1.3551  0.5063
H       3.4678  0.1019  1.0981
H       1.1133  -0.9064  1.9006
H       1.3655  0.7782  1.7796
H       -0.8630  -0.7190  -1.6962
