27

Co      0.0000  0.0000  0.0000
Cl      0.0241  -2.2997  -0.2288
Cl      -0.0309  2.1654  0.1405
N       -1.4204  0.1500  -1.3760
N       -1.5072  -0.0497  1.2349
N       1.4847  0.1341  -1.2727
N       1.4576  -0.1638  1.2550
C       -2.7178  0.5344  -0.5868
C       -2.6222  -0.3459  0.5933
C       2.7560  0.5856  -0.6174
C       2.7761  -0.4080  0.5586
H       -1.3751  1.0928  -1.8215
H       -2.9702  1.5214  -0.1567
H       -3.4097  -0.4307  -1.0820
H       -3.4482  0.1227  1.1324
H       -3.1103  -1.3134  0.0623
H       -1.2633  0.5510  2.2318
H       -1.4241  -0.8621  1.8433
H       1.4761  -0.8630  -1.5633
H       1.5897  0.9405  -1.9102
H       3.4613  0.3966  -1.4484
H       2.8716  1.6648  -0.5672
H       2.2740  -1.4059  -0.1012
H       3.6064  -0.5410  1.3470
H       1.3388  -0.8888  1.9558
H       1.7796  0.6206  1.8709
H       -1.5719  -0.6462  -1.9951
