27

Co      0.0000  0.0000  0.0000
Cl      0.1201  -2.2287  -0.1999
Cl      0.0232  2.4134  0.2380
N       -1.6187  0.2509  -1.3603
N       -1.4777  -0.0685  1.3919
N       1.6071  0.2096  -1.4105
N       1.5742  -0.0707  1.4031
C       -2.8018  0.5249  -0.6180
C       -2.9403  -0.4189  0.8271
C       2.7361  0.4730  -0.6608
C       2.7769  -0.5299  0.7583
H       -1.7032  0.6143  -2.5532
H       -2.6491  1.5487  -0.2034
H       -3.4935  0.2945  -1.4331
H       -3.6777  0.4888  1.3146
H       -2.9288  -1.3064  -0.2083
H       -1.1197  0.8461  1.8572
H       -1.3821  -0.9211  1.9186
H       1.8655  -0.7770  -1.6745
H       0.9951  0.7404  -2.1744
H       3.9538  0.6463  -0.9634
H       2.6277  1.5009  -0.2390
H       2.8173  -1.5683  0.4752
H       3.4852  -0.0510  1.4777
H       1.0432  -0.9979  1.7003
H       1.2159  1.0675  1.4830
H       -1.4033  -0.5502  -2.0164
