27

Co      0.0000  0.0000  0.0000
Cl      0.0186  -2.2864  -0.3143
Cl      0.1158  2.2283  0.1339
N       -1.2546  0.1514  -1.3946
N       -1.4783  -0.0477  1.3426
N       1.4641  0.2712  -1.3132
N       1.4803  -0.0761  1.2513
C       -2.7995  0.4389  -0.6330
C       -2.5368  -0.2890  0.5750
C       2.8755  0.4618  -0.6336
C       2.8388  -0.3504  0.6313
H       -1.1680  0.5762  -2.4242
H       -3.1293  1.4310  -0.2627
H       -3.3340  -0.3613  -1.4080
H       -3.2737  -0.3026  1.4605
H       -2.8658  -1.3148  0.3156
H       -1.4876  0.6563  2.1197
H       -0.7602  -0.6742  1.9705
H       1.5618  -0.6624  -1.6526
H       0.7067  1.2214  -1.5483
H       3.5939  -0.0621  -1.3147
H       2.3764  1.5627  -0.5610
H       3.0868  -1.4019  0.3689
H       3.6896  0.0973  1.1544
H       1.1697  -0.9668  1.7090
H       1.3295  0.6955  1.9182
H       -1.5368  -0.9341  -1.5418
