27

Co      0.0000  0.0000  0.0000
Cl      -0.0604  -2.3513  -0.2381
Cl      -0.0389  2.1642  0.1684
N       -1.5239  0.1716  -1.3181
N       -1.4483  -0.1101  1.3210
N       1.4615  -0.0228  -1.4139
N       1.4865  -0.2544  1.3527
C       -2.9441  0.3284  -0.7012
C       -2.8046  -0.6533  0.6761
C       2.8303  0.3868  -0.6993
C       2.5289  -0.4603  0.5201
H       -1.0761  0.7588  -2.0879
H       -3.2574  1.4084  -0.5982
H       -3.7342  0.0389  -1.3848
H       -3.9606  0.0476  0.7116
H       -2.9623  -1.6373  0.1542
H       -1.7555  0.8361  1.6492
H       -1.3579  -0.9301  1.9042
H       2.1242  -0.6830  -2.2052
H       1.2328  0.9381  -1.7940
H       3.4540  -0.0428  -1.5221
H       2.5506  1.3339  0.0747
H       2.6661  -1.4429  0.0649
H       3.2565  0.0051  1.1743
H       1.2078  -1.0831  1.8559
H       1.0836  0.6730  1.7738
H       -0.9604  -0.5719  -2.1269
