27

Co      0.0000  0.0000  0.0000
Cl      -0.0006  -2.2718  -0.1687
Cl      -0.0321  2.2646  0.2196
N       -1.5034  0.3088  -1.4081
N       -1.3401  -0.2272  1.2729
N       1.3902  0.1290  -1.2873
N       1.2992  -0.1115  1.3341
C       -2.5745  0.3589  -0.6231
C       -2.6784  -0.2911  0.6197
C       2.8834  0.4729  -0.6635
C       2.6523  -0.2740  0.4434
H       -1.2592  0.8963  -2.2114
H       -2.6985  1.4469  -0.6412
H       -3.4548  0.3103  -1.2927
H       -3.4556  -0.0945  1.3480
H       -3.2712  -1.2598  0.0831
H       -1.0337  0.7559  1.6286
H       -2.0531  -0.9621  2.1748
H       1.5463  -0.8083  -1.6648
H       1.2506  0.9934  -1.7953
H       3.6103  0.2532  -1.4342
H       2.6071  1.5282  -0.4353
H       3.2791  -1.3917  0.5932
H       3.5591  -0.3562  1.1636
H       1.1116  -0.8783  1.9291
H       1.5800  0.7933  1.7368
H       -1.8142  -0.3559  -2.2450
