27

Co      0.0000  0.0000  0.0000
Cl      0.0559  -2.2601  -0.2331
Cl      0.0570  2.1972  0.2098
N       -1.2919  0.0908  -1.2295
N       -1.4597  -0.1740  1.4868
N       1.4115  0.0928  -1.1837
N       1.4048  -0.1185  1.4565
C       -2.7160  0.3965  -0.5507
C       -2.8694  -0.5034  0.6895
C       2.9735  0.3742  -0.7467
C       2.7214  -0.4634  0.7666
H       -1.5885  0.6117  -2.3089
H       -2.4855  1.5193  -0.5313
H       -3.8525  0.4236  -0.9242
H       -3.9367  -0.0430  0.9098
H       -2.7946  -1.5541  0.4094
H       -1.3214  0.4930  2.3389
H       -1.4851  -1.3266  1.7295
H       0.8441  -0.8405  -1.6430
H       1.4017  0.7894  -1.9552
H       3.8851  0.2241  -1.3202
H       2.8098  1.4440  -0.4980
H       2.5765  -1.4148  0.0453
H       3.7152  0.4111  0.8937
H       1.0118  -0.8580  2.0422
H       1.8670  0.8955  1.6636
H       -1.1828  -0.6953  -1.9083
