27

Co      0.0000  0.0000  0.0000
Cl      -0.0650  -2.2498  -0.2077
Cl      -0.0124  2.2759  0.2707
N       -1.5240  0.1613  -1.3967
N       -1.5649  -0.1704  1.3977
N       1.4628  0.2107  -1.3452
N       1.4698  -0.0925  1.4108
C       -2.8575  0.4182  -0.7357
C       -2.7764  -0.3084  0.7863
C       2.5240  0.4489  -0.7608
C       2.6435  -0.2497  0.6778
H       -1.4143  1.1509  -1.7619
H       -3.4293  1.4383  -0.4690
H       -3.6903  -0.0156  -1.3130
H       -3.6348  -0.1335  1.3980
H       -3.2871  -1.1883  -0.1929
H       -1.6605  0.8969  1.5520
H       -1.0291  -1.0030  1.8275
H       1.2202  -0.8301  -1.5781
H       1.5641  0.8290  -2.2016
H       3.5638  -0.0191  -1.0306
H       2.7554  1.4937  -0.5056
H       2.4912  -1.3794  0.7154
H       3.6923  0.0188  1.0199
H       0.8000  -0.4692  2.3489
H       1.4346  0.7144  2.0154
H       -1.7408  -0.5073  -2.2155
