27

Co      0.0000  0.0000  0.0000
Cl      0.0809  -2.2469  -0.2128
Cl      0.0389  2.2398  0.2222
N       -1.4660  0.1255  -1.2790
N       -1.5363  -0.2469  1.4911
N       1.6855  0.1783  -1.3474
N       1.5309  -0.0762  1.5221
C       -2.7890  0.4586  -0.5201
C       -2.5657  -0.4015  0.6827
C       2.9098  0.4026  -0.6495
C       2.7392  -0.5249  0.6000
H       -1.0837  0.7905  -1.9489
H       -2.3366  1.5280  -0.2847
H       -3.5576  0.2055  -1.2377
H       -3.5962  -0.1985  1.0805
H       -2.8775  -1.4231  0.3787
H       -1.4535  0.7842  1.7123
H       -1.3187  -0.9186  2.1859
H       1.6414  -0.6468  -1.9455
H       1.4573  0.7923  -2.1193
H       3.5541  0.2012  -1.5609
H       3.4209  1.4779  -0.6219
H       2.9098  -1.6637  0.8857
H       3.1142  0.1547  1.6546
H       1.0113  -0.7796  2.1009
H       1.5474  0.8193  1.9576
H       -1.6655  -0.8916  -1.5105
