27

Co      0.0000  0.0000  0.0000
Cl      -0.0171  -2.3082  -0.1227
Cl      -0.0373  2.3606  0.2566
N       -1.7059  0.2351  -1.3672
N       -1.6499  -0.1772  1.4243
N       1.5443  0.2461  -1.3581
N       1.3087  -0.0121  1.4048
C       -2.8512  0.5566  -0.6512
C       -2.8046  -0.4085  0.7827
C       2.8667  0.4737  -0.6770
C       2.7204  -0.3890  0.6498
H       -0.9824  0.9368  -1.8907
H       -2.6123  1.6215  -0.3607
H       -3.6601  0.7338  -1.5062
H       -4.0805  -0.1481  0.8605
H       -3.0208  -1.4719  0.6086
H       -1.6872  0.6445  2.0040
H       -1.4494  -0.9121  2.0693
H       1.1915  -0.5457  -2.0131
H       0.5009  0.9660  -1.7908
H       3.6998  0.4732  -1.4077
H       3.0959  1.4714  -0.2059
H       2.3145  -1.3822  0.1176
H       3.2972  0.0789  1.5217
H       1.0350  -0.9014  1.8688
H       1.5461  0.5742  2.3346
H       -2.1097  -0.8941  -1.3852
