27

Co      0.0000  0.0000  0.0000
Cl      -0.0102  -2.3281  -0.2379
Cl      -0.0210  2.1009  0.1860
N       -1.3065  0.0658  -1.4094
N       -1.5046  -0.1571  1.4199
N       1.4162  0.0758  -1.1898
N       1.4741  -0.2619  1.2474
C       -2.6385  0.2558  -0.6641
C       -2.8077  -0.5354  0.6671
C       2.8360  0.2811  -0.6184
C       2.8073  -0.4740  0.5602
H       -1.8204  1.0138  -2.0061
H       -3.2183  1.2613  -0.3072
H       -3.5447  -0.1808  -1.1315
H       -3.6612  -0.0495  1.1782
H       -3.2087  -1.6269  0.7162
H       -0.9389  0.8736  1.7123
H       -1.0309  -0.8818  2.0028
H       1.5783  -0.4769  -2.2109
H       1.2761  0.8240  -1.8832
H       3.7981  -0.1205  -1.0017
H       2.7221  1.2400  0.0772
H       2.5192  -1.5836  0.5312
H       3.7072  -0.2779  1.1230
H       1.4914  -0.9708  2.0009
H       1.6365  0.6766  1.6076
H       -1.7847  -0.7258  -2.0235
