27

Co      0.0000  0.0000  0.0000
Cl      -0.0589  -2.3298  -0.2893
Cl      -0.0359  2.2325  0.1604
N       -1.5541  -0.0796  -1.5003
N       -1.4538  -0.1841  1.2643
N       1.3864  0.0393  -1.3347
N       1.3038  -0.2703  1.2554
C       -2.7392  0.3659  -0.6410
C       -2.8135  -0.4984  0.6665
C       2.7436  0.4092  -0.6260
C       2.8559  -0.4493  0.5797
H       -1.1229  0.6136  -2.1522
H       -2.8730  1.4218  -0.4465
H       -3.7070  0.2189  -1.1321
H       -3.6986  -0.3673  1.2952
H       -2.8841  -1.6246  0.8265
H       -1.5623  0.7067  1.7249
H       -0.9886  -1.0511  1.6813
H       1.2828  -0.8809  -1.7508
H       1.2241  0.8742  -1.8853
H       3.4282  -0.5506  -1.1438
H       2.5093  1.4533  -0.3650
H       2.7858  -1.5199  0.3528
H       3.7255  -0.5064  1.2976
H       1.6756  -1.2615  1.7798
H       1.1932  0.6422  1.7179
H       -0.9245  -0.6978  -2.4832
