27

Co      0.0000  0.0000  0.0000
Cl      -0.0486  -2.2787  -0.1575
Cl      -0.0041  2.2990  0.2863
N       -1.5161  0.1216  -1.2719
N       -1.4693  -0.1270  1.3912
N       1.3702  0.1289  -1.1669
N       1.5042  -0.1502  1.4201
C       -2.8496  0.2519  -0.7003
C       -2.7063  -0.4121  0.7454
C       2.5536  0.3158  -0.6723
C       2.5358  -0.5059  0.6693
H       -0.8884  0.7807  -1.9003
H       -2.9537  1.3401  -0.6731
H       -3.7781  -0.1702  -1.1459
H       -3.9742  -0.6229  0.9973
H       -2.9447  -1.3850  0.0694
H       -1.6428  0.5265  2.2529
H       -1.4923  -1.0016  1.9470
H       1.4641  -0.6577  -1.8044
H       0.9760  0.6453  -2.0349
H       3.6714  0.3265  -1.0405
H       2.8586  1.3365  -0.2710
H       3.1058  -1.4962  0.2803
H       3.2286  0.2600  1.2573
H       0.7806  -1.2295  1.5062
H       1.5355  0.8600  1.6369
H       -1.8170  -0.6323  -1.9552
