27

Co      0.0000  0.0000  0.0000
Cl      -0.0155  -2.2896  -0.1304
Cl      -0.0320  2.3043  0.2520
N       -1.4392  0.1611  -1.4147
N       -1.3481  -0.0596  1.2818
N       1.4244  0.1942  -1.3985
N       1.6090  -0.2763  1.3865
C       -2.7059  0.4200  -0.6439
C       -2.8091  -0.4279  0.5168
C       2.5828  0.4982  -0.5714
C       2.6183  -0.4723  0.6286
H       -1.4389  1.2310  -1.7092
H       -3.0612  1.4123  -0.1710
H       -3.6214  0.2611  -1.2141
H       -3.3440  -0.0193  1.4677
H       -2.7140  -1.4947  0.3636
H       -1.5188  0.7243  1.9249
H       -0.9444  -0.4423  2.2887
H       1.7247  -0.7313  -1.7879
H       1.2353  0.7971  -2.1944
H       3.3303  0.3889  -1.3800
H       2.9024  1.5056  -0.1527
H       2.9245  -1.5317  0.5683
H       3.4759  -0.0317  1.1621
H       1.3831  -1.0248  1.9951
H       1.9206  0.6199  1.8206
H       -1.0624  -0.8321  -1.7311
