27

Co      0.0000  0.0000  0.0000
Cl      -0.0587  -2.2674  -0.1511
Cl      -0.1309  2.3798  0.2270
N       -1.5203  0.2133  -1.1939
N       -1.6619  -0.2685  1.4318
N       1.3745  0.1772  -1.2693
N       1.3337  -0.1485  1.3665
C       -2.7479  0.5025  -0.6246
C       -2.7706  -0.3862  0.6947
C       2.6434  0.3915  -0.6940
C       2.6784  -0.4162  0.6649
H       -1.3284  0.9463  -1.8384
H       -3.2763  1.5830  -0.5980
H       -3.4906  0.4299  -1.4809
H       -3.3720  0.0115  1.5513
H       -2.7903  -1.2999  -0.1701
H       -1.4624  0.7325  1.7144
H       -1.1304  -0.9676  2.0155
H       1.1911  -0.7949  -1.6207
H       1.0163  0.9628  -1.7873
H       3.7011  0.4320  -1.1795
H       2.8630  1.4322  -0.4183
H       2.8026  -1.4811  0.4462
H       3.5832  -0.5098  1.3565
H       0.7883  -0.6617  2.1662
H       1.4316  0.7789  1.7752
H       -1.5366  -0.6750  -1.6620
