27

Co      0.0000  0.0000  0.0000
Cl      -0.0461  -2.3122  -0.1852
Cl      -0.0515  2.3078  0.2841
N       -1.6628  0.2121  -1.3338
N       -1.4314  -0.1050  1.2285
N       1.4265  0.1431  -1.3041
N       1.4166  0.0492  1.3440
C       -2.7655  0.4301  -0.5531
C       -2.8740  -0.4642  0.6466
C       2.6254  0.3496  -0.7326
C       2.6737  -0.5197  0.8025
H       -1.3568  1.1314  -1.7426
H       -2.9607  1.5402  -0.6533
H       -3.5909  -0.1731  -1.0495
H       -3.8892  -0.4269  1.1390
H       -2.8950  -1.5578  0.5506
H       -1.7684  0.6319  1.9413
H       -1.4088  -0.7084  2.0976
H       1.4172  -0.8498  -1.6032
H       1.4564  0.9668  -1.9015
H       3.5155  0.6367  -1.5190
H       3.0712  1.3902  -0.4419
H       3.0861  -1.5458  0.5451
H       3.5701  -0.1752  1.3329
H       0.9666  -0.6679  1.9467
H       1.7414  0.7725  2.0747
H       -1.6345  -0.5912  -1.9306
