27

Co      0.0000  0.0000  0.0000
Cl      -0.0142  -2.3815  -0.2075
Cl      0.0010  2.2638  0.2526
N       -1.4129  -0.0379  -1.3528
N       -1.3904  -0.1961  1.5564
N       1.4459  0.0907  -1.2298
N       1.4891  -0.2338  1.3447
C       -2.7321  0.4991  -0.5779
C       -2.9043  -0.4550  0.6516
C       2.8637  0.2918  -0.6360
C       2.8432  -0.2969  0.7359
H       -1.1821  1.1750  -1.4116
H       -3.4081  1.5421  -0.5099
H       -3.7694  -0.2099  -0.7793
H       -3.7359  -0.4897  1.4016
H       -2.6261  -1.4880  0.1996
H       -1.1733  0.5847  2.2547
H       -1.6496  -1.1300  2.1196
H       1.2552  -0.7450  -1.8237
H       1.8704  0.8751  -1.9995
H       3.6066  0.0750  -1.3953
H       3.0307  1.3163  -0.2834
H       3.2972  -1.4201  0.8752
H       3.4923  -0.2949  1.7275
H       1.6536  -0.8728  2.2223
H       1.2606  0.4848  2.1349
H       -1.5823  -0.8885  -1.8655
