27

Co      0.0000  0.0000  0.0000
Cl      0.0334  -2.2356  -0.2907
Cl      -0.0357  2.4369  0.0982
N       -1.6281  0.2539  -1.3928
N       -1.4558  -0.3087  1.2432
N       1.4260  0.1361  -1.4855
N       1.4330  -0.1031  1.2290
C       -2.6315  0.5440  -0.6838
C       -2.7012  -0.3515  0.5632
C       2.6655  0.3242  -0.5988
C       2.6680  -0.3969  0.6466
H       -1.3843  1.0348  -1.9792
H       -3.1833  1.6469  -0.7460
H       -3.6135  0.2549  -1.1165
H       -3.6677  0.3106  0.8721
H       -2.8007  -1.3837  0.2814
H       -1.6258  0.6314  1.6226
H       -1.2518  -0.9536  1.9803
H       1.5483  -0.7313  -1.9714
H       1.0397  0.8500  -2.0902
H       3.3964  0.6500  -1.6100
H       2.7993  1.3792  -0.3750
H       3.4554  -1.3451  0.1300
H       3.4485  -0.2343  1.3948
H       1.3931  -0.7620  1.9926
H       1.6055  0.7981  1.6731
H       -1.5244  -0.6523  -1.8398
