27

Co      0.0000  0.0000  0.0000
Cl      0.0352  -2.2783  -0.1901
Cl      0.0078  2.1961  0.2273
N       -1.4435  0.1498  -1.3194
N       -1.5174  -0.2706  1.2992
N       1.5047  0.1128  -1.3394
N       1.4400  -0.1646  1.3559
C       -2.6441  0.4783  -0.7675
C       -2.9290  -0.5457  0.7083
C       2.7298  0.2369  -0.6861
C       2.7782  -0.4142  0.4755
H       -1.5871  0.9199  -2.0294
H       -2.9693  1.4457  -0.1723
H       -3.4220  -0.0915  -1.3414
H       -3.8106  0.0055  1.1685
H       -3.0516  -1.6052  0.4919
H       -1.2778  0.8202  1.4526
H       -1.0608  -0.8138  2.0918
H       1.5977  -0.6659  -1.9712
H       0.6246  0.7859  -1.8590
H       3.8296  0.2982  -1.1008
H       3.3949  1.2742  -0.5356
H       3.1940  -1.4616  0.3224
H       3.3774  -0.0703  1.3620
H       0.8921  -0.8900  1.9094
H       1.1210  0.8641  1.6126
H       -1.8075  -0.7228  -1.8051
