27

Co      0.0000  0.0000  0.0000
Cl      -0.0703  -2.2964  -0.2123
Cl      0.0491  2.3378  0.2481
N       -1.5814  -0.0053  -1.3785
N       -1.5611  -0.1063  1.3438
N       1.3876  0.1862  -1.3574
N       1.5364  -0.1473  1.4628
C       -2.7802  0.1950  -0.4550
C       -2.6691  -0.4605  0.6453
C       2.7921  0.3584  -0.4722
C       2.6592  -0.3517  0.7923
H       -1.6237  1.0050  -1.7867
H       -2.3776  1.2369  -0.0492
H       -3.5651  0.4429  -1.3547
H       -3.5837  -0.0595  1.1010
H       -2.7883  -1.5288  0.5699
H       -1.3553  0.8683  1.6955
H       -1.5547  -0.6976  2.2093
H       1.3572  -0.4824  -2.2032
H       0.9262  1.0707  -1.7940
H       3.3664  -0.0302  -1.3780
H       2.3993  1.4719  -0.4455
H       2.5667  -1.4344  0.7282
H       3.5809  -0.4625  1.4892
H       1.6316  -1.0629  1.9747
H       1.6081  0.8307  1.7505
H       -1.7822  -0.5480  -2.3982
