27

Co      0.0000  0.0000  0.0000
Cl      -0.0958  -2.2340  -0.2020
Cl      -0.0359  2.2359  0.2338
N       -1.5662  0.0837  -1.3694
N       -1.4401  -0.0522  1.2905
N       1.4686  0.2431  -1.3281
N       1.3985  0.0143  1.3466
C       -2.7837  0.4454  -0.6481
C       -2.8132  -0.2917  0.7125
C       2.7950  0.6165  -0.4725
C       2.5544  -0.4569  0.4939
H       -1.0867  1.0242  -1.6922
H       -3.0352  1.5119  -0.5312
H       -3.6014  0.3829  -1.3812
H       -3.7099  -0.1324  1.2927
H       -3.0363  -1.2901  0.2604
H       -1.0692  0.9196  1.6431
H       -1.2281  -0.9674  1.7193
H       1.3028  -0.6720  -1.7979
H       1.2843  1.0383  -1.9260
H       3.6730  0.6483  -1.1579
H       2.5534  1.7216  -0.4276
H       3.2039  -1.5473  0.6282
H       3.8231  0.0942  0.4669
H       0.8391  -0.4659  2.1967
H       1.7419  0.7157  2.1175
H       -1.7307  -0.7673  -1.8756
