27

Co      0.0000  0.0000  0.0000
Cl      -0.0216  -2.3410  -0.2623
Cl      -0.0494  2.2581  0.1920
N       -1.5106  0.1194  -1.4125
N       -1.4831  -0.1321  1.3343
N       1.2785  0.0941  -1.4792
N       1.2459  -0.1910  1.4036
C       -2.7165  0.3712  -0.6491
C       -2.8535  -0.4896  0.6344
C       2.8091  0.4061  -0.5935
C       2.7313  -0.5176  0.6013
H       -1.4139  0.5374  -2.4864
H       -2.7426  1.3775  -0.2033
H       -3.6786  0.3473  -1.1995
H       -4.0375  -0.4377  0.9137
H       -2.6986  -1.5515  0.4338
H       -1.8674  0.8354  1.6364
H       -1.4813  -0.7499  2.1695
H       1.5700  -0.6994  -2.0847
H       1.6085  1.0174  -2.0540
H       3.1480  -0.3298  -1.6757
H       2.6283  1.5992  -1.0493
H       2.6160  -1.5105  0.0581
H       3.5131  -0.0968  1.2138
H       1.5875  -0.8665  2.2675
H       1.3766  0.9077  1.5154
H       -1.7455  -0.5229  -2.2924
