27

Co      0.0000  0.0000  0.0000
Cl      -0.0444  -2.2205  -0.2521
Cl      0.0505  2.3689  0.1595
N       -1.5797  0.0778  -1.3392
N       -1.4438  -0.1342  1.4071
N       1.6659  0.2014  -1.2943
N       1.5453  -0.2034  1.2014
C       -2.7341  0.4440  -0.6669
C       -2.6138  -0.4136  0.5650
C       2.9928  0.5460  -0.6843
C       2.8326  -0.2963  0.7612
H       -1.4118  0.9116  -1.8738
H       -2.6024  1.4363  -0.0934
H       -3.8321  0.3862  -1.0197
H       -3.3843  -0.0119  1.2282
H       -3.4089  -1.4644  0.4466
H       -1.2537  0.9174  1.6164
H       -1.6885  -1.1567  1.8276
H       1.6172  -0.6939  -1.7560
H       1.1303  0.8192  -2.0084
H       3.7162  0.3980  -1.5149
H       2.6116  1.6575  -0.6220
H       2.7961  -1.3764  0.6059
H       3.7614  -0.1383  1.3237
H       1.5147  -0.9084  1.9428
H       1.1508  0.4835  2.0427
H       -1.5348  -0.7565  -1.9093
