27

Co      0.0000  0.0000  0.0000
Cl      0.0091  -2.2963  -0.1741
Cl      -0.0075  2.4168  0.3131
N       -1.5242  0.2260  -1.2880
N       -1.5133  -0.0023  1.3403
N       1.4245  0.2574  -1.3666
N       1.3696  -0.0123  1.4015
C       -2.9031  0.5083  -0.6069
C       -2.6557  -0.2599  0.6572
C       2.7138  0.4401  -0.7667
C       2.6994  -0.2566  0.7842
H       -1.4693  0.9805  -1.9601
H       -2.7685  1.5747  -0.4310
H       -3.6299  0.0237  -1.2753
H       -3.4612  0.2884  1.1791
H       -2.9709  -1.1670  -0.1889
H       -1.5828  0.8660  1.8207
H       -1.4143  -0.8326  1.9133
H       1.3332  -0.6322  -1.8525
H       1.6364  1.1399  -1.9610
H       3.8339  0.5948  -1.2044
H       2.5725  1.5160  -0.5411
H       2.8010  -1.3291  0.5884
H       3.8000  -0.0012  1.0797
H       1.4703  -0.5771  2.3540
H       1.6262  0.6207  2.2859
H       -1.9772  -0.5922  -1.8327
