27

Co      0.0000  0.0000  0.0000
Cl      0.0058  -2.2931  -0.1523
Cl      0.0662  2.2213  0.2938
N       -1.5100  0.1404  -1.1502
N       -1.5152  -0.2269  1.5620
N       1.6085  0.1061  -1.2868
N       1.5089  -0.1286  1.4150
C       -2.7117  0.3763  -0.5817
C       -2.7078  -0.5100  0.6431
C       2.7970  0.3444  -0.5279
C       2.6761  -0.4492  0.8362
H       -1.7950  1.2638  -1.4511
H       -3.1539  1.4096  -0.3421
H       -3.4125  -0.1373  -1.2931
H       -3.0586  -0.0985  1.8321
H       -2.9650  -1.5958  0.6418
H       -2.0495  0.4845  2.2716
H       -1.4330  -0.9113  2.3084
H       1.6399  -0.7090  -1.8910
H       1.5197  0.8112  -1.9887
H       3.6312  0.2839  -1.2738
H       3.2223  1.3902  -0.3453
H       3.0060  -1.4658  0.5397
H       3.8373  -0.3155  1.0895
H       1.2243  -0.3703  2.5997
H       1.8239  0.8162  1.7876
H       -1.2793  -0.9338  -1.3171
