27

Co      0.0000  0.0000  0.0000
Cl      0.0081  -2.2655  -0.2099
Cl      0.0649  2.4221  0.1886
N       -1.5150  0.2029  -1.4454
N       -1.2935  -0.2148  1.3750
N       1.6782  0.2685  -1.3996
N       1.6265  -0.0771  1.4147
C       -2.6622  0.4740  -0.7351
C       -2.6196  -0.3926  0.6674
C       2.7376  0.4321  -0.6452
C       2.7547  -0.3951  0.6234
H       -0.7881  0.5700  -2.3615
H       -3.0080  1.3527  0.2209
H       -3.6203  -0.2441  -0.9869
H       -3.5688  -0.3416  1.2602
H       -3.1145  -1.4154  0.3485
H       -1.6101  1.0136  1.2593
H       -0.9171  -0.8998  2.0013
H       1.3030  -0.6751  -1.7970
H       1.1879  1.0061  -1.9381
H       3.6313  0.5219  -1.3331
H       3.1461  1.4086  -0.0455
H       3.0343  -1.4852  0.5635
H       3.6184  -0.5756  1.4250
H       1.7037  -0.9918  1.9188
H       1.3722  0.7254  2.0470
H       -1.7465  -0.6223  -2.0132
