27

Co      0.0000  0.0000  0.0000
Cl      0.0085  -2.2039  -0.2197
Cl      -0.0656  2.2812  0.2348
N       -1.4325  0.1985  -1.3706
N       -1.4983  -0.0746  1.2930
N       1.4504  0.2046  -1.2653
N       1.5646  -0.1142  1.2111
C       -2.4756  0.4111  -0.5958
C       -2.7264  -0.2476  0.6006
C       2.7673  0.3764  -0.7459
C       2.7347  -0.4121  0.7246
H       -1.1343  0.8320  -2.1102
H       -2.9530  1.4828  -0.5473
H       -3.3993  -0.0917  -0.9927
H       -3.8488  -0.7761  1.1884
H       -2.6560  -1.3385  0.4498
H       -1.3960  0.7888  1.8232
H       -1.4532  -0.6351  2.1964
H       1.3139  -0.8609  -1.4363
H       1.2243  1.0353  -1.7845
H       3.5044  0.1208  -1.4997
H       3.0194  1.4061  -0.3766
H       2.8257  -1.4277  0.2832
H       3.8521  -0.0556  0.9466
H       1.2500  -0.8398  1.8446
H       1.5227  0.8497  1.5669
H       -1.2841  -0.6911  -1.8507
