27

Co      0.0000  0.0000  0.0000
Cl      0.0155  -2.3100  -0.1343
Cl      -0.0622  2.2821  0.3160
N       -1.5369  0.1592  -1.3529
N       -1.6820  -0.1344  1.4557
N       1.4449  0.1326  -1.3958
N       1.3576  -0.0538  1.4263
C       -2.7582  0.3463  -0.5034
C       -2.7275  -0.3405  0.6664
C       2.7771  0.3934  -0.5254
C       2.6926  -0.5872  0.5816
H       -1.0201  0.9775  -1.8078
H       -2.9476  1.4373  -0.5118
H       -3.7260  0.1536  -0.9939
H       -3.7473  -0.5199  1.2367
H       -2.6625  -1.3943  0.4515
H       -1.5267  0.8552  1.7683
H       -1.4297  -0.8838  2.0636
H       0.9617  -0.6284  -2.1478
H       1.4229  0.8151  -2.1536
H       3.7588  0.1669  -0.9876
H       2.9008  1.5132  -0.6602
H       2.8747  -1.6321  0.3499
H       3.3203  -0.2638  1.4542
H       1.1370  -0.8297  2.0209
H       1.4748  1.0386  1.5475
H       -1.6357  -0.6541  -1.9347
