27

Co      0.0000  0.0000  0.0000
Cl      0.1210  -2.2405  -0.3192
Cl      0.1466  2.2131  0.1158
N       -1.4911  0.0780  -1.3918
N       -1.2857  -0.1375  1.2693
N       1.5827  0.1531  -1.4318
N       1.5441  -0.3125  1.2317
C       -2.5826  0.2411  -0.7388
C       -2.6608  -0.4041  0.5577
C       2.8519  0.2697  -0.7923
C       2.9031  -0.4138  0.5452
H       -1.2474  0.6801  -2.1772
H       -3.0048  1.2013  -0.1762
H       -3.2130  -0.2349  -1.5142
H       -3.8533  -0.4578  0.8586
H       -2.9158  -1.4758  0.4213
H       -1.6295  0.8463  1.5475
H       -1.5880  -1.0443  1.8517
H       1.6693  -0.5321  -2.2195
H       1.8566  1.0617  -2.0302
H       4.1307  0.1982  -0.9265
H       2.4922  1.3506  -0.5395
H       2.8671  -1.5622  0.7154
H       3.7533  -0.3404  1.2400
H       1.4395  -0.7499  2.2693
H       1.3306  0.6046  1.6721
H       -1.6124  -0.8346  -1.8130
