27

Co      0.0000  0.0000  0.0000
Cl      -0.0792  -2.3458  -0.1362
Cl      -0.0510  2.3307  0.2645
N       -1.6184  0.1187  -1.4249
N       -1.4955  -0.1540  1.4237
N       1.4761  0.3006  -1.2649
N       1.5652  -0.0671  1.4743
C       -2.8362  0.2910  -0.4492
C       -2.8443  -0.3518  0.7108
C       2.7181  0.4050  -0.4198
C       2.7637  -0.4492  0.5913
H       -1.1540  1.0903  -1.7157
H       -2.9850  1.3232  -0.1708
H       -3.4994  0.1841  -1.3736
H       -4.0160  -0.0580  0.8767
H       -2.4087  -1.3505  0.1819
H       -0.9866  0.8529  1.7503
H       -1.0803  -0.8892  2.0066
H       1.3888  -0.5087  -1.8917
H       1.4859  1.0751  -1.9363
H       3.3411  -0.2911  -1.1200
H       2.9837  1.4670  -0.2904
H       1.9468  -1.5641  0.5828
H       3.5676  -0.1754  1.2626
H       1.0814  -0.8697  1.9749
H       1.5325  0.6922  2.1436
H       -1.4184  -0.7890  -1.8513
