27

Co      0.0000  0.0000  0.0000
Cl      0.0178  -2.2378  -0.2057
Cl      -0.0110  2.2915  0.1975
N       -1.3980  0.2359  -1.4035
N       -1.4433  -0.1483  1.3786
N       1.4242  0.2145  -1.3313
N       1.5740  -0.0858  1.3211
C       -2.7384  0.5865  -0.8363
C       -2.7492  -0.3987  0.5763
C       2.7141  0.3963  -0.6836
C       2.7040  -0.1948  0.6700
H       -1.0934  0.7859  -2.2423
H       -2.7153  1.6123  -0.4475
H       -4.0615  0.4288  -0.8760
H       -3.6001  0.0254  1.1227
H       -2.8162  -1.4800  0.4162
H       -0.8749  0.8127  1.7920
H       -0.9365  -0.8671  1.9656
H       1.3431  -0.7605  -1.6458
H       0.9417  0.9555  -1.8832
H       3.2764  0.0286  -1.5976
H       2.3346  1.4760  -0.5732
H       2.6266  -1.2094  0.1201
H       3.7221  -0.6742  1.3678
H       1.4269  -1.0919  1.6718
H       1.3996  0.6447  2.0337
H       -1.7302  -0.6499  -1.8596
