27

Co      0.0000  0.0000  0.0000
Cl      0.0666  -2.1568  -0.1915
Cl      0.0555  2.2664  0.2449
N       -1.4727  0.0886  -1.1862
N       -1.3986  -0.1564  1.4025
N       1.4685  0.0996  -1.2621
N       1.4313  -0.1111  1.3254
C       -2.6625  0.3706  -0.5762
C       -2.8328  -0.3324  0.7585
C       2.8160  0.4224  -0.6064
C       2.9076  -0.3276  0.7195
H       -1.0837  1.0310  -1.5486
H       -2.0923  1.4529  -0.3967
H       -3.2491  0.3091  -1.5947
H       -3.7500  -0.4960  1.4448
H       -2.4120  -1.3348  0.1479
H       -1.6799  0.6861  1.9107
H       -1.6625  -1.1391  1.8960
H       1.7812  -0.8514  -1.5982
H       1.1119  0.5383  -2.2269
H       3.3740  -0.0191  -1.5070
H       2.6157  1.4512  -0.2604
H       2.7054  -1.4811  0.9090
H       3.7607  -0.5706  1.5679
H       1.3654  -0.8989  1.9514
H       1.6895  0.6034  2.0763
H       -1.1356  -0.5607  -2.0488
