27

Co      0.0000  0.0000  0.0000
Cl      0.0010  -2.2252  -0.1924
Cl      0.0186  2.2959  0.2904
N       -1.5568  0.1627  -1.4541
N       -1.5579  -0.0105  1.4085
N       1.3460  0.1245  -1.3437
N       1.4321  -0.1916  1.4514
C       -2.7119  0.4045  -0.4969
C       -2.7215  -0.5179  0.6987
C       2.8191  0.3616  -0.6133
C       2.6328  -0.2552  0.5671
H       -1.4288  1.1440  -1.8139
H       -3.1244  1.4676  -0.3637
H       -3.3802  0.3035  -1.4204
H       -3.8383  -0.3714  1.0202
H       -3.4617  -1.4619  0.0614
H       -1.4888  1.0514  1.5937
H       -1.5787  -0.7396  2.1043
H       1.7639  -0.8412  -1.6705
H       1.5398  0.6734  -2.3134
H       3.4177  0.1025  -1.5443
H       2.4969  1.3887  -0.2449
H       3.1749  -1.2884  0.4093
H       3.2963  0.0270  1.4194
H       0.9850  -0.5468  2.4508
H       1.3438  0.6657  1.9956
H       -1.4768  -0.8060  -1.7991
