27

Co      0.0000  0.0000  0.0000
Cl      -0.0156  -2.2640  -0.2302
Cl      0.0278  2.3524  0.1983
N       -1.4329  0.2286  -1.3737
N       -1.4274  -0.1005  1.3301
N       1.5262  0.3843  -1.4584
N       1.5271  -0.0793  1.2477
C       -2.6659  0.4648  -0.6568
C       -2.6602  -0.2785  0.4975
C       2.7149  0.4479  -0.6155
C       2.9834  -0.2923  0.7100
H       -1.1824  1.0352  -1.9023
H       -2.4461  1.5010  -0.3971
H       -3.5157  0.1574  -1.2349
H       -3.0613  -0.2741  1.8022
H       -2.6680  -1.3510  0.3401
H       -1.5203  0.7172  1.8989
H       -1.1772  -0.5547  2.3056
H       2.3459  -0.5559  -1.7687
H       1.3924  0.8772  -2.4041
H       3.5613  -0.0796  -1.1252
H       3.1025  1.4865  -0.4319
H       2.9769  -1.4456  0.9210
H       3.9589  -0.0752  1.2129
H       1.5739  -0.6607  2.1443
H       1.6665  0.8146  1.7118
H       -2.0545  -0.7067  -1.6570
