27

Co      0.0000  0.0000  0.0000
Cl      0.0773  -2.3825  -0.3201
Cl      -0.0155  2.2443  0.1509
N       -1.5273  0.1473  -1.4311
N       -1.4718  -0.1277  1.3954
N       1.4193  0.1234  -1.4426
N       1.4919  -0.0696  1.3419
C       -2.8597  0.4458  -0.7820
C       -2.7096  -0.3761  0.5452
C       2.8842  0.3809  -0.7206
C       2.9258  -0.4810  0.5302
H       -0.8286  1.0689  -1.7173
H       -3.0225  1.5285  -0.7495
H       -3.7325  0.1559  -1.3686
H       -3.4143  0.6188  1.0214
H       -2.5796  -1.4428  0.4505
H       -1.9503  0.6223  2.0411
H       -1.1385  -1.2180  1.5918
H       1.0971  -0.7108  -2.0615
H       1.4214  0.5736  -2.4795
H       3.8655  0.2124  -1.2058
H       3.1191  1.4033  -0.3811
H       2.8398  -1.5358  0.3255
H       3.7317  -0.3801  1.2619
H       1.1160  -0.8204  1.9302
H       1.3571  0.8932  1.6970
H       -1.0181  -0.7391  -1.9396
