27

Co      0.0000  0.0000  0.0000
Cl      0.0345  -2.3760  -0.2658
Cl      -0.0435  2.3359  0.2054
N       -1.4118  0.1308  -1.3591
N       -1.3200  -0.0649  1.2449
N       1.6201  0.1355  -1.3129
N       1.5475  -0.1253  1.4009
C       -2.6533  0.5269  -0.7601
C       -2.6738  -0.3702  0.7098
C       2.7316  0.4045  -0.7197
C       2.8398  -0.2986  0.5885
H       -1.7214  0.9547  -2.0520
H       -3.0757  1.5823  -0.5362
H       -4.0038  0.7289  -0.9339
H       -3.7418  -0.2393  1.0837
H       -2.5921  -1.4274  0.3800
H       -1.2410  0.7258  1.9141
H       -1.3986  -0.6425  2.1816
H       1.4454  -0.6416  -1.9851
H       1.6872  0.8327  -2.0857
H       3.9556  0.1193  -0.8207
H       2.8316  1.4679  -0.5837
H       2.4542  -1.3706  0.2834
H       3.5584  -0.4332  1.5215
H       1.5014  -1.1339  1.7958
H       1.3701  0.7077  1.9652
H       -1.9015  -0.8162  -1.6931
