27

Co      0.0000  0.0000  0.0000
Cl      0.0093  -2.3639  -0.2573
Cl      0.0333  2.2792  0.2303
N       -1.3315  0.1340  -1.2204
N       -1.4459  -0.1440  1.3212
N       1.4786  0.1066  -1.2965
N       1.5324  -0.1431  1.2892
C       -2.6949  0.4491  -0.7705
C       -2.6441  -0.3078  0.7554
C       2.9878  0.4333  -0.7579
C       2.8617  -0.3495  0.7904
H       -1.2893  0.9480  -1.8266
H       -3.1794  1.4016  -0.1528
H       -3.6378  -0.0407  -1.1424
H       -3.6288  -0.2401  1.2752
H       -2.8743  -1.3313  0.3594
H       -1.5186  0.8868  1.5170
H       -1.1758  -0.9243  1.8898
H       2.1876  -0.5219  -2.1394
H       0.8243  0.4306  -2.3203
H       4.1177  0.4225  -1.1263
H       2.8257  1.5568  -0.7669
H       2.8500  -1.4184  0.5700
H       3.7160  0.0805  1.3135
H       1.5374  -1.0995  1.7611
H       1.1602  0.6476  1.9516
H       -1.5038  -0.7469  -1.7019
