27

Co      0.0000  0.0000  0.0000
Cl      0.0571  -2.2885  -0.2705
Cl      -0.0444  2.1666  0.2146
N       -1.4906  0.1805  -1.3832
N       -1.5675  -0.1324  1.5512
N       1.3649  0.0328  -1.4239
N       1.5461  -0.1688  1.3161
C       -2.7577  0.3314  -0.7254
C       -2.7530  -0.5113  0.5837
C       2.8182  0.1540  -0.5815
C       2.7827  -0.4230  0.5963
H       -0.9873  0.4772  -2.4766
H       -2.3728  1.4532  -0.7845
H       -3.5864  0.1127  -1.3895
H       -3.5092  -0.0694  1.2389
H       -2.4432  -1.5246  0.1435
H       -1.7887  0.8688  1.7893
H       -1.3129  -0.8506  2.2028
H       1.5744  -0.8427  -1.9032
H       1.4071  0.9457  -1.9167
H       3.2854  -0.1866  -1.6547
H       3.2439  1.1999  -0.4408
H       3.2045  -1.4162  0.2008
H       3.5115  -0.0857  1.3163
H       1.7625  -1.0330  1.9140
H       1.4632  0.8321  1.5998
H       -1.5245  -0.5181  -2.1772
