27

Co      0.0000  0.0000  0.0000
Cl      0.0141  -2.1850  -0.3092
Cl      0.0037  2.3428  0.1356
N       -1.4397  0.0993  -1.3671
N       -1.4030  -0.0663  1.2561
N       1.6431  0.2645  -1.4170
N       1.5181  -0.0318  1.2380
C       -2.5251  0.3864  -0.7185
C       -2.7311  -0.3399  0.5426
C       2.8767  0.3569  -0.7616
C       2.7082  -0.4915  0.5408
H       -1.0942  1.0402  -1.7126
H       -3.2883  1.5045  -0.8979
H       -3.4461  0.1985  -1.2769
H       -3.5065  -0.0658  1.2422
H       -2.2478  -1.4516  0.5522
H       -1.8898  0.6419  1.9760
H       -1.1481  -0.9546  1.7129
H       1.0868  -0.5828  -1.9833
H       0.8790  1.0536  -1.8521
H       3.5716  0.6345  -1.7989
H       3.2054  1.3755  -0.3215
H       2.9804  -1.6081  0.7232
H       3.6957  -0.1341  0.9452
H       1.1164  -0.8068  1.8000
H       1.1944  0.6716  2.0521
H       -1.5156  -0.9183  -1.6137
