27

Co      0.0000  0.0000  0.0000
Cl      0.0358  -2.3387  -0.2593
Cl      -0.0704  2.1985  0.1962
N       -1.3166  0.1292  -1.2481
N       -1.5842  -0.1877  1.3532
N       1.2912  -0.0449  -1.3315
N       1.3456  -0.2369  1.3067
C       -2.8314  0.4197  -0.6973
C       -2.8548  -0.4343  0.7816
C       2.7594  0.3310  -0.7166
C       2.7123  -0.3878  0.6621
H       -0.9427  0.7067  -2.0499
H       -3.0704  1.4984  -0.6196
H       -4.0502  -0.1393  -0.7145
H       -3.6365  0.3258  1.2535
H       -2.9201  -1.3859  0.0736
H       -1.3725  0.5085  2.1668
H       -1.7778  -1.2356  1.7724
H       1.5671  -0.9052  -1.8126
H       1.0944  0.9298  -1.6973
H       3.8699  0.3929  -1.1242
H       2.8261  1.3817  -0.4834
H       2.9314  -1.4347  0.3682
H       3.6281  -0.4437  1.3056
H       0.7987  -0.6818  2.2051
H       1.4776  0.6809  1.7143
H       -1.7724  -0.6188  -1.9340
