27

Co      0.0000  0.0000  0.0000
Cl      -0.0181  -2.3106  -0.1951
Cl      0.0098  2.3485  0.2548
N       -1.5272  0.1750  -1.3857
N       -1.5677  -0.1153  1.2433
N       1.5043  0.0591  -1.2606
N       1.3494  -0.0953  1.4232
C       -2.8827  0.2863  -0.6284
C       -2.7528  -0.4060  0.6369
C       2.7626  0.5033  -0.6457
C       2.7004  -0.4931  0.4548
H       -1.7017  0.7468  -2.3370
H       -2.8996  1.3479  -0.3865
H       -3.6827  0.3615  -1.4487
H       -3.6286  -0.3169  1.2919
H       -2.8565  -1.4735  0.5303
H       -1.5956  0.8267  1.6219
H       -1.6269  -0.9213  1.8629
H       1.0771  -0.7440  -1.9196
H       1.3146  0.8106  -1.8981
H       3.5744  0.0814  -1.2486
H       2.2650  1.6131  -0.6811
H       3.4796  -1.4962  0.0580
H       3.7005  -0.6434  1.0559
H       1.0403  -1.1151  1.7003
H       1.2190  0.8705  1.7792
H       -1.2455  -0.7335  -1.8836
