27

Co      0.0000  0.0000  0.0000
Cl      0.0528  -2.3933  -0.2284
Cl      0.0479  2.2901  0.1695
N       -1.2917  0.2348  -1.3362
N       -1.4199  -0.2481  1.2636
N       1.4377  0.1184  -1.1516
N       1.6237  -0.1317  1.4017
C       -2.6578  0.3861  -0.6700
C       -2.6518  -0.4025  0.6799
C       2.7569  0.4598  -0.6809
C       2.8343  -0.4515  0.5268
H       -0.9843  0.8184  -2.1228
H       -2.8289  1.4395  -0.4818
H       -3.6929  0.5159  -1.2264
H       -3.4475  -0.3792  1.4603
H       -2.7352  -1.4818  0.5788
H       -1.7205  0.5366  1.8979
H       -1.1162  -0.5644  2.3803
H       1.8257  -0.7183  -1.6690
H       1.7004  1.0259  -1.7030
H       3.7552  0.4575  -1.2335
H       2.8704  1.5846  -0.7906
H       2.4397  -1.5551  0.3872
H       3.5096  -0.7374  1.5850
H       1.4238  -0.8747  2.0390
H       1.5897  0.8414  1.7149
H       -1.4671  -0.8127  -1.5265
