27

Co      0.0000  0.0000  0.0000
Cl      -0.0061  -2.1514  -0.1364
Cl      0.0592  2.3687  0.2909
N       -1.5031  0.2083  -1.2999
N       -1.4276  -0.1255  1.3783
N       1.5136  0.2527  -1.3068
N       1.4722  -0.0464  1.4074
C       -2.6993  0.4580  -0.5488
C       -2.7946  -0.4859  0.6322
C       2.8787  0.4427  -0.5964
C       2.7583  -0.3630  0.7180
H       -1.7371  0.6959  -2.3652
H       -2.9366  1.5165  -0.4102
H       -3.6736  -0.2006  -0.8221
H       -3.5466  0.0945  1.2468
H       -3.3444  -1.5127  0.3477
H       -1.2818  0.8364  1.7570
H       -1.7651  -1.0043  2.0063
H       1.6019  -0.7774  -1.5214
H       1.3789  0.8385  -2.1522
H       3.4922  0.3777  -1.5821
H       2.4968  1.5242  -0.4129
H       2.1821  -1.4190  0.3920
H       3.9576  -0.2355  0.9296
H       1.1730  -0.8208  1.9692
H       1.0653  0.7739  2.0183
H       -1.5293  -0.7610  -1.6601
