27

Co      0.0000  0.0000  0.0000
Cl      -0.0183  -2.2194  -0.2138
Cl      0.0266  2.4037  0.2344
N       -1.6141  0.0838  -1.4676
N       -1.4905  -0.1148  1.2093
N       1.6400  0.1333  -1.3774
N       1.3761  -0.1321  1.3282
C       -2.8358  0.3369  -0.6295
C       -2.7217  -0.3938  0.5878
C       2.7367  0.3487  -0.6377
C       2.9259  -0.3311  0.3906
H       -1.3076  0.9330  -1.9491
H       -2.0423  1.4211  -0.3737
H       -3.5783  0.3572  -1.4863
H       -3.7005  -0.4617  1.1736
H       -2.8802  -1.3674  0.0170
H       -1.9037  0.7269  1.7132
H       -1.0843  -0.6282  2.0632
H       1.3274  -0.8132  -1.7574
H       0.7614  1.0139  -1.6639
H       3.5849  0.2740  -1.3369
H       2.9629  1.3900  -0.4344
H       3.1330  -1.4268  0.4021
H       3.6349  -0.3337  1.3056
H       1.3805  -0.8774  2.0288
H       1.3197  0.7438  1.8422
H       -1.4546  -0.8379  -1.8831
