27

Co      0.0000  0.0000  0.0000
Cl      -0.0617  -2.2384  -0.2065
Cl      -0.0108  2.4175  0.1918
N       -1.4966  0.1728  -1.2048
N       -1.4583  -0.1204  1.2880
N       1.3806  0.2572  -1.2524
N       1.3595  -0.0958  1.3723
C       -2.7950  0.3054  -0.5101
C       -2.8614  -0.4021  0.5526
C       2.7671  0.5036  -0.6786
C       2.6584  -0.4257  0.7200
H       -1.1788  0.8276  -1.9218
H       -2.6075  1.2939  0.0730
H       -3.6750  0.3194  -1.1874
H       -3.3601  0.1687  1.4814
H       -2.9089  -1.4921  0.5798
H       -1.6411  0.6768  1.8854
H       -1.7883  -1.1837  1.7035
H       1.5573  -0.5432  -1.8699
H       1.4280  0.9817  -2.0114
H       3.3381  -0.3636  -1.3813
H       2.7774  1.4594  0.0282
H       2.6411  -1.5302  0.7599
H       3.7406  0.1471  0.9222
H       1.3963  -0.7842  2.1406
H       1.4786  0.6805  2.0290
H       -1.6917  -0.5850  -1.8622
