27

Co      0.0000  0.0000  0.0000
Cl      -0.0072  -2.3773  -0.2017
Cl      0.0722  2.2919  0.2185
N       -1.4028  0.1188  -1.3766
N       -1.5120  -0.2244  1.3626
N       1.5976  0.1045  -1.3431
N       1.5445  -0.0433  1.2608
C       -2.7290  0.4157  -0.7831
C       -2.7955  -0.5718  0.8381
C       2.8891  0.3440  -0.6073
C       2.8378  -0.3507  0.5670
H       -1.7085  1.0606  -1.9306
H       -2.2070  1.4554  -0.3376
H       -3.7316  0.1801  -1.2048
H       -3.5659  0.0473  1.3937
H       -2.7396  -1.5015  -0.0347
H       -1.6979  0.5968  1.9143
H       -1.0770  -1.0094  1.8986
H       2.1434  -0.7835  -1.7642
H       1.5765  0.6906  -2.2268
H       3.7562  0.5057  -1.3579
H       2.6467  1.3493  -0.1354
H       2.9214  -1.3653  0.1681
H       3.7150  -0.4113  1.2757
H       1.2223  -0.8797  1.7695
H       1.5551  0.3823  2.5133
H       -1.6011  -0.7790  -1.8041
