27

Co      0.0000  0.0000  0.0000
Cl      -0.0578  -2.3509  -0.1959
Cl      -0.0064  2.3334  0.2430
N       -1.4760  0.2331  -1.3557
N       -1.5365  -0.0677  1.3141
N       1.5437  0.0988  -1.3652
N       1.4312  -0.0581  1.4439
C       -2.8279  0.4809  -0.6461
C       -2.8003  -0.4696  0.6360
C       2.8167  0.5143  -0.7363
C       2.6160  -0.2898  0.4933
H       -1.5994  1.0792  -1.9651
H       -2.0985  1.5988  -0.5622
H       -3.5857  0.4538  -1.4785
H       -3.7619  -0.6052  1.2586
H       -3.0311  -1.4619  0.1014
H       -2.0549  0.8555  1.6508
H       -1.5052  -0.7191  2.1204
H       1.4500  -0.5916  -2.2058
H       1.5488  0.8443  -2.0790
H       3.7924  0.2408  -1.1790
H       3.0193  1.5480  -0.4829
H       3.3554  -1.3440  0.4295
H       3.6364  0.3899  0.7117
H       1.5679  -0.9649  1.9889
H       1.6944  0.5710  2.3435
H       -1.8015  -0.6286  -1.8381
