27

Co      0.0000  0.0000  0.0000
Cl      -0.0882  -2.2508  -0.2594
Cl      -0.0147  2.3087  0.1618
N       -1.4306  0.1907  -1.3529
N       -1.6385  -0.1076  1.4068
N       1.5045  0.2098  -1.4742
N       1.4543  -0.1213  1.2859
C       -2.8009  0.3439  -0.8095
C       -2.7049  -0.3949  0.4866
C       2.7095  0.4191  -0.7991
C       2.6473  -0.3802  0.5234
H       -1.6608  0.7919  -2.2525
H       -3.2477  1.3311  -0.3597
H       -3.5447  0.0113  -1.5289
H       -3.4929  -0.4241  1.3014
H       -2.9341  -1.3635  -0.1275
H       -1.7658  0.9022  1.6425
H       -1.5201  -1.0152  1.8602
H       1.4926  -0.5276  -2.1815
H       1.0530  1.0874  -1.8709
H       3.5491  0.4148  -1.5639
H       2.6361  1.5654  -1.0205
H       2.5837  -1.4109  0.0924
H       3.4814  -0.5711  1.3270
H       0.8626  -0.6308  2.0934
H       1.1665  0.7306  1.8306
H       -1.9259  -0.7274  -1.7625
