27

Co      0.0000  0.0000  0.0000
Cl      0.0348  -2.3320  -0.2851
Cl      -0.0524  2.1251  0.1793
N       -1.4054  0.1956  -1.4145
N       -1.4941  -0.1568  1.2674
N       1.1870  0.1189  -1.3837
N       1.4684  -0.1455  1.2654
C       -2.8293  0.3647  -0.5528
C       -2.8595  -0.4761  0.5776
C       2.7876  0.2230  -0.7678
C       2.7906  -0.4482  0.7515
H       -1.4492  0.7015  -2.4256
H       -2.2701  1.5296  -0.7879
H       -3.5490  -0.1646  -1.2154
H       -3.5718  0.1036  1.2225
H       -2.7776  -1.5184  0.2789
H       -1.0716  0.9294  1.4385
H       -1.6527  -0.9431  1.9596
H       1.3864  -0.8717  -1.6567
H       1.0174  0.9293  -1.9505
H       3.5320  0.3166  -1.6537
H       2.8776  1.3165  -0.6754
H       2.4213  -1.5495  0.7177
H       3.6513  0.0600  1.2401
H       0.8669  -0.8928  1.7853
H       1.2678  0.7641  1.7021
H       -1.2730  -0.4940  -2.2417
