27

Co      0.0000  0.0000  0.0000
Cl      0.0028  -2.3011  -0.2384
Cl      0.1048  2.3210  0.1972
N       -1.4274  0.1241  -1.3639
N       -1.4912  -0.0687  1.2022
N       1.3938  0.2059  -1.2994
N       1.5025  -0.1717  1.3746
C       -2.6682  0.3638  -0.5727
C       -2.8993  -0.5671  0.6812
C       2.7619  0.5156  -0.7861
C       2.7684  -0.4509  0.7372
H       -1.4103  0.8432  -2.0740
H       -2.8396  1.4419  -0.5023
H       -3.6468  -0.1482  -0.9108
H       -3.4339  0.0957  1.5297
H       -2.8186  -1.6817  0.7219
H       -1.2042  0.7523  1.8191
H       -1.1136  -1.0358  1.5329
H       1.3923  -0.7118  -1.7084
H       1.4782  1.1322  -1.8012
H       3.3999  0.1134  -1.6033
H       2.6660  1.4644  -0.0278
H       2.6217  -1.4923  0.3980
H       3.4235  -0.3324  1.6620
H       1.0749  -0.6105  2.2929
H       0.9817  0.8477  1.6856
H       -1.2563  -0.7246  -1.9208
