27

Co      0.0000  0.0000  0.0000
Cl      0.0076  -2.3362  -0.2509
Cl      0.0493  2.2008  0.1752
N       -1.4718  0.1224  -1.3066
N       -1.4655  -0.1917  1.2385
N       1.4105  0.1095  -1.3888
N       1.5103  -0.3064  1.2725
C       -2.8618  0.2648  -0.5132
C       -2.7580  -0.4636  0.6154
C       2.8438  0.2649  -0.5484
C       2.7998  -0.3586  0.6994
H       -1.4539  0.6576  -2.2456
H       -2.6220  1.3924  -0.6098
H       -3.6313  0.1185  -1.2864
H       -3.2688  -0.0721  1.6146
H       -3.0310  -1.4764  0.3025
H       -1.9116  0.7916  1.4774
H       -0.6825  -0.7892  1.8888
H       1.8191  -0.7849  -1.7864
H       1.2654  1.0265  -1.8411
H       3.8550  -0.1207  -0.9104
H       2.5443  1.3330  -0.3379
H       2.6632  -1.3685  0.3001
H       3.4583  0.4611  1.3014
H       1.6008  -0.8331  2.2668
H       1.7315  0.3888  2.0603
H       -1.5242  -0.7955  -1.7118
