27

Co      0.0000  0.0000  0.0000
Cl      -0.0193  -2.1691  -0.2293
Cl      -0.0225  2.3854  0.1835
N       -1.6359  0.2989  -1.2808
N       -1.2845  -0.1489  1.2473
N       1.4445  0.2117  -1.2612
N       1.3033  -0.0924  1.3422
C       -2.7776  0.3566  -0.6906
C       -2.7626  -0.4879  0.6145
C       2.5060  0.3195  -0.6440
C       2.6397  -0.4073  0.7181
H       -1.4550  0.8114  -2.2137
H       -2.6527  1.4005  -0.4070
H       -3.7390  0.2022  -1.1950
H       -3.3255  0.1309  1.4435
H       -2.9240  -1.5198  0.3181
H       -1.5489  0.7308  1.7337
H       -1.4584  -0.6696  2.2621
H       1.4768  -0.6839  -1.6895
H       1.0464  0.8794  -1.9358
H       3.5024  -0.1374  -0.9664
H       2.8372  1.4669  -0.9092
H       2.3463  -1.4628  0.4238
H       3.4965  0.2188  1.1468
H       1.4351  -1.2640  1.5773
H       1.0971  0.7315  1.9151
H       -1.8621  -0.5215  -1.8473
