27

Co      0.0000  0.0000  0.0000
Cl      -0.0637  -2.3143  -0.1853
Cl      -0.0545  2.2750  0.2434
N       -1.7736  0.1180  -1.3795
N       -1.6728  -0.1690  1.2112
N       1.4013  0.1857  -1.3008
N       1.4219  -0.1298  1.1904
C       -2.8819  0.4627  -0.6492
C       -2.8011  -0.3071  0.5867
C       2.7088  0.4698  -0.6971
C       2.7195  -0.4426  0.5339
H       -1.4969  0.9335  -1.9119
H       -2.8693  1.4862  -0.2739
H       -3.4302  0.0672  -1.5737
H       -3.6867  -0.3450  1.2783
H       -2.8474  -1.4532  0.8193
H       -1.7311  0.9644  1.2339
H       -1.3689  -1.1086  1.5690
H       0.9715  -0.7955  -1.6766
H       1.2296  0.6976  -2.2192
H       4.0133  0.6121  -0.8886
H       2.8862  1.5378  -0.4862
H       3.1829  -1.6317  1.0742
H       3.5508  -0.0070  1.1230
H       1.0899  -0.8995  1.7788
H       1.3816  0.5980  1.9579
H       -1.2509  -0.7352  -1.9425
