27

Co      0.0000  0.0000  0.0000
Cl      -0.1422  -2.3942  -0.2227
Cl      -0.0642  2.1480  0.2168
N       -1.4550  0.1199  -1.4099
N       -1.5650  -0.1921  1.3845
N       1.3929  0.0826  -1.4328
N       1.4639  -0.1952  1.4456
C       -2.9078  0.1550  -0.5911
C       -2.9848  -0.5035  0.6076
C       2.6675  0.3808  -0.6721
C       2.8581  -0.5832  0.6487
H       -1.6087  0.9120  -2.1082
H       -3.0106  1.1483  -0.1336
H       -3.6061  -0.1121  -1.3889
H       -3.9124  -0.0681  1.0406
H       -2.8870  -1.5190  0.2423
H       -1.4439  0.9336  1.4668
H       -1.7378  -1.0566  1.9674
H       1.3976  -0.6476  -2.1818
H       1.7608  1.0739  -1.9373
H       3.4094  0.1295  -1.4568
H       2.8251  1.5761  -1.1541
H       3.0701  -1.5866  0.1858
H       3.5274  -0.1994  1.4266
H       1.4511  -0.8496  2.2387
H       1.1108  0.8572  1.6862
H       -1.2143  -0.4282  -2.4932
