27

Co      0.0000  0.0000  0.0000
Cl      0.0023  -2.2286  -0.3141
Cl      -0.0259  2.2436  0.1150
N       -1.5534  0.1960  -1.3449
N       -1.5295  -0.2885  1.2610
N       1.3623  0.1038  -1.3395
N       1.4313  -0.1078  1.2062
C       -2.8902  0.4578  -0.7495
C       -2.9824  -0.4032  0.6105
C       2.7057  0.2990  -0.7823
C       2.6022  -0.2739  0.6208
H       -1.6119  1.1401  -1.8248
H       -2.9346  1.4931  -0.4589
H       -3.4669  -0.3903  -1.4692
H       -3.9763  -0.2245  1.0592
H       -2.6406  -1.4470  0.1884
H       -1.3562  0.8361  1.3472
H       -1.2028  -0.7780  2.1686
H       1.6326  -0.9940  -1.4378
H       1.5357  0.7139  -2.2069
H       3.6508  -0.2353  -1.1406
H       2.7511  1.3291  -0.5149
H       2.8610  -1.2076  -0.2325
H       3.6714  -0.8640  1.3002
H       1.4735  -0.7418  2.0629
H       1.4534  0.4749  2.2020
H       -1.4298  -0.6705  -1.8499
