27

Co      0.0000  0.0000  0.0000
Cl      -0.0626  -2.2939  -0.2258
Cl      -0.1331  2.2873  0.2249
N       -1.6448  0.1730  -1.4813
N       -1.5151  -0.1059  1.3789
N       1.5251  0.1092  -1.4937
N       1.3291  -0.2165  1.2957
C       -2.8185  0.3313  -0.6160
C       -3.0049  -0.5008  0.6106
C       2.7392  0.3580  -0.6251
C       2.7476  -0.4863  0.5936
H       -1.3426  0.6097  -2.4363
H       -3.0633  1.4457  -0.8088
H       -3.8641  0.1090  -1.0051
H       -3.7974  -0.1381  1.2785
H       -3.4803  -1.5270  0.3975
H       -1.7843  0.5798  2.1908
H       -0.6321  -0.7459  1.9602
H       1.0060  -0.8754  -1.8212
H       1.3135  1.1280  -1.8013
H       3.5909  -0.1007  -1.1500
H       3.3872  1.4154  -0.5480
H       2.9035  -1.6191  0.7345
H       3.3331  -0.3075  1.6006
H       1.4309  -1.0222  1.9384
H       1.4329  0.7898  1.5586
H       -2.1798  -0.6988  -1.9392
