27

Co      0.0000  0.0000  0.0000
Cl      -0.0396  -2.2402  -0.2514
Cl      0.0460  2.2236  0.1505
N       -1.4757  0.0315  -1.3615
N       -1.4641  -0.3068  1.3422
N       1.4799  0.0566  -1.3753
N       1.4490  -0.1511  1.1765
C       -2.7016  0.2482  -0.7271
C       -2.7362  -0.3405  0.5757
C       2.7096  0.4300  -0.6206
C       2.7468  -0.5084  0.5730
H       -1.3930  0.9657  -1.7868
H       -3.2048  1.2572  -0.4091
H       -3.7861  -0.6090  -0.7749
H       -3.6979  -0.4202  1.1810
H       -3.1124  -1.3937  0.3713
H       -1.8822  0.5922  1.7878
H       -1.8619  -1.2689  1.8946
H       1.0504  -0.7374  -2.0065
H       0.8876  1.1472  -1.5034
H       3.4612  -0.2018  -1.2014
H       2.8287  1.4711  -0.3863
H       2.9672  -1.5116  0.1334
H       3.6897  -0.3810  1.0929
H       0.6898  -0.7519  1.8620
H       1.3909  0.4269  2.1757
H       -0.9953  -0.8575  -1.8939
