27

Co      0.0000  0.0000  0.0000
Cl      -0.0920  -2.1946  -0.2487
Cl      -0.1370  2.4007  0.1681
N       -1.5221  0.2506  -1.3634
N       -1.5199  -0.1827  1.3601
N       1.4027  0.0686  -1.2682
N       1.5140  -0.1021  1.3447
C       -2.9662  0.5024  -0.6170
C       -2.8794  -0.4194  0.7380
C       2.7163  0.3257  -0.4983
C       2.6366  -0.3599  0.6764
H       -0.9378  1.0694  -1.8271
H       -2.7154  1.5417  -0.2386
H       -3.8166  -0.2278  -1.0227
H       -4.1780  0.0246  0.6904
H       -2.5403  -1.4496  0.3188
H       -1.2378  0.4915  2.2378
H       -1.8641  -0.8503  2.2618
H       1.5767  -0.7111  -1.9051
H       1.1208  0.7711  -1.9499
H       3.4095  0.6461  -1.5334
H       2.6376  1.4363  -0.4647
H       2.5054  -1.3966  0.4766
H       3.5028  0.1508  1.1509
H       1.0482  -0.8418  1.9026
H       2.0807  0.7327  1.8224
H       -1.7912  -0.7449  -1.6103
