27

Co      0.0000  0.0000  0.0000
Cl      0.0372  -2.2962  -0.2229
Cl      -0.0003  2.3576  0.2150
N       -1.6075  0.1237  -1.4776
N       -1.3975  -0.1321  1.3746
N       1.4827  0.2539  -1.4109
N       1.5007  -0.0836  1.2618
C       -2.9317  0.4934  -0.7262
C       -2.7002  -0.3668  0.4720
C       2.6116  0.3428  -0.5812
C       2.6322  -0.4489  0.6009
H       -1.3680  1.0454  -1.8873
H       -2.7511  1.5535  -0.4896
H       -3.7327  0.1703  -1.3681
H       -3.5717  -0.2287  1.1304
H       -2.8654  -1.5280  0.7822
H       -1.5867  0.8592  1.6629
H       -1.4377  -0.8642  2.0771
H       1.7557  -0.3089  -2.4138
H       1.2169  0.9172  -2.1277
H       2.9844  0.1178  -1.8261
H       3.2386  1.4064  -0.5384
H       2.6537  -1.5312  0.6389
H       3.4026  -0.2247  1.3345
H       1.2392  -0.7964  1.9038
H       1.7986  0.9124  1.4971
H       -1.3010  -0.7184  -2.0524
