27

Co      0.0000  0.0000  0.0000
Cl      0.0555  -2.2153  -0.1866
Cl      0.0273  2.3627  0.2038
N       -1.2823  0.2728  -1.3020
N       -1.3785  -0.1009  1.4066
N       1.5843  0.1746  -1.2983
N       1.6141  -0.1579  1.4335
C       -2.5448  0.5535  -0.4622
C       -2.5289  -0.3897  0.5813
C       2.8165  0.4632  -0.6096
C       2.6706  -0.3535  0.6662
H       -1.3514  1.0432  -1.9819
H       -3.3343  1.6634  -0.6004
H       -3.3000  0.2504  -1.1827
H       -3.6889  -0.1692  0.8210
H       -2.8965  -1.4449  0.4402
H       -1.4815  0.9396  1.5995
H       -0.8789  -0.9304  1.8323
H       1.6204  -0.5581  -2.0309
H       1.0453  0.6371  -2.1601
H       3.5955  0.4122  -1.4226
H       2.8947  1.5841  -0.7360
H       3.0130  -1.2983  0.0291
H       3.3105  0.0955  1.4486
H       1.3302  -0.9134  2.0203
H       1.8699  0.7802  1.7987
H       -1.0059  -0.7039  -1.6683
