27

Co      0.0000  0.0000  0.0000
Cl      -0.0255  -2.3357  -0.1898
Cl      -0.0140  2.1739  0.1990
N       -1.5364  0.1813  -1.3418
N       -1.5201  -0.2434  1.3571
N       1.3745  0.0899  -1.2721
N       1.5354  -0.1298  1.4499
C       -2.8720  0.3602  -0.7290
C       -2.7100  -0.3933  0.7481
C       2.8904  0.4585  -0.6243
C       2.7582  -0.4665  0.6446
H       -1.6337  1.2150  -1.7179
H       -2.3657  1.5017  -0.8449
H       -3.8918  -0.1991  -1.0045
H       -3.4214  -0.1080  1.5072
H       -2.6577  -1.4534  0.5150
H       -1.8338  0.5686  1.9184
H       -1.8219  -1.0952  2.0185
H       1.3796  -0.8186  -1.6880
H       1.0956  1.0601  -1.6202
H       3.3179  0.1999  -1.7854
H       2.6844  1.5526  -0.5739
H       2.4803  -1.5380  0.5072
H       3.6343  -0.0522  1.1346
H       0.8014  -0.8514  1.9963
H       1.5670  0.2415  2.7636
H       -1.2653  -0.6118  -1.9985
