27

Co      0.0000  0.0000  0.0000
Cl      0.0370  -2.3359  -0.2048
Cl      0.0315  2.3762  0.2691
N       -1.3516  0.0947  -1.4367
N       -1.4560  -0.0555  1.2835
N       1.4979  0.1488  -1.3350
N       1.4098  -0.0521  1.2230
C       -2.7572  0.4246  -0.6024
C       -2.8266  -0.2562  0.5967
C       2.8138  0.6468  -0.7543
C       2.8756  -0.4259  0.6022
H       -1.0612  1.1986  -1.6002
H       -2.7379  1.3375  0.2040
H       -3.4567  -0.2180  -1.2357
H       -3.4746  0.0642  1.4360
H       -3.2573  -1.1941  -0.0657
H       -1.5157  0.7475  1.9155
H       -1.1846  -0.7344  1.9733
H       1.6432  -0.8342  -1.6457
H       1.5289  0.6018  -2.3791
H       3.4183  0.2189  -1.6150
H       3.2164  1.6493  -0.3694
H       2.6987  -1.4713  0.2617
H       3.3810  -0.1275  1.6603
H       1.0364  -0.8442  1.7738
H       1.6378  0.5264  2.1984
H       -1.5394  -0.8264  -1.8220
