27

Co      0.0000  0.0000  0.0000
Cl      0.0086  -2.4411  -0.2115
Cl      -0.0888  2.2224  0.1972
N       -1.5100  0.0526  -1.4228
N       -1.4398  -0.1542  1.2530
N       1.5328  0.0900  -1.6004
N       1.4878  -0.2713  1.3614
C       -2.6751  0.5161  -0.7134
C       -2.6400  -0.5208  0.6398
C       2.6911  0.3988  -0.5995
C       2.8142  -0.4711  0.5987
H       -1.0523  0.8835  -1.8859
H       -2.3393  1.4737  0.0193
H       -3.4026  -0.1791  -1.2716
H       -3.4373  -0.0135  1.2158
H       -3.1777  -1.5195  0.2205
H       -1.7867  0.5188  2.0747
H       -1.6577  -0.6706  2.2855
H       1.7235  -0.8371  -1.9997
H       1.2346  0.7249  -2.3243
H       3.3055  0.1151  -1.4945
H       3.3453  1.3412  -0.0032
H       2.5449  -1.4799  0.1390
H       3.7482  -0.6068  1.2772
H       1.0477  -1.0999  1.7994
H       1.5642  0.8970  1.3468
H       -1.5233  -0.6679  -2.1602
