27

Co      0.0000  0.0000  0.0000
Cl      -0.0098  -2.2348  -0.2900
Cl      0.0027  2.2426  0.1635
N       -1.4151  0.1514  -1.3784
N       -1.5676  -0.1423  1.3224
N       1.4848  0.1040  -1.2800
N       1.4253  -0.2064  1.1741
C       -2.8044  0.2529  -0.7000
C       -2.8965  -0.4844  0.6701
C       2.7085  0.2879  -0.8217
C       2.8058  -0.4817  0.6644
H       -1.0847  0.8170  -2.0697
H       -3.1780  1.3391  -0.6046
H       -3.5868  0.1294  -1.4705
H       -3.6956  0.0548  1.2407
H       -2.5955  -1.6789  1.1249
H       -1.7476  0.7821  1.7127
H       -1.6500  -0.9610  1.9473
H       1.6164  -0.4800  -2.2217
H       1.3289  0.9680  -1.8150
H       3.6016  0.1354  -1.4174
H       2.6255  1.2846  -0.2475
H       2.5401  -1.5010  0.2905
H       3.3653  0.3736  1.3692
H       1.1587  -0.8809  1.8995
H       1.6423  0.4605  1.9854
H       -1.3294  -0.9116  -1.5621
