27

Co      0.0000  0.0000  0.0000
Cl      0.0625  -2.3508  -0.2288
Cl      0.1479  2.2930  0.2116
N       -1.4399  0.2542  -1.4557
N       -1.2471  -0.0991  1.1981
N       1.6444  0.1676  -1.3438
N       1.6835  -0.0794  1.3185
C       -2.7696  0.3449  -0.6636
C       -2.7491  -0.5869  0.6051
C       2.9273  0.3416  -0.5960
C       2.7680  -0.3321  0.6369
H       -0.9576  0.9168  -2.0905
H       -2.9602  1.2506  0.2285
H       -3.6034  0.0037  -1.2510
H       -3.6118  -0.4737  1.2776
H       -3.0852  -1.6101  0.2562
H       -1.4213  0.7767  1.7081
H       -1.4091  -0.8013  2.0001
H       1.0183  -0.8011  -1.7562
H       1.5796  0.5720  -2.4159
H       3.7539  0.3688  -1.3406
H       3.0868  1.3913  -0.3050
H       2.8557  -1.4149  0.5509
H       3.9119  -0.6416  1.1426
H       1.8269  -0.9628  1.8627
H       1.5885  0.9694  1.5168
H       -1.5502  -0.7825  -1.6660
