27

Co      0.0000  0.0000  0.0000
Cl      -0.0655  -2.4051  -0.2167
Cl      -0.0245  2.2472  0.2768
N       -1.6289  0.1533  -1.4040
N       -1.5331  0.0194  1.3809
N       1.4125  0.1114  -1.3578
N       1.4640  -0.2063  1.3967
C       -2.7845  0.2900  -0.3541
C       -2.7871  -0.3496  0.6525
C       2.7128  0.4745  -0.4511
C       2.7233  -0.3290  0.7633
H       -1.3629  0.9038  -1.9886
H       -2.3966  1.4072  -0.4050
H       -3.4784  -0.0152  -1.1352
H       -3.6744  -0.3975  1.3648
H       -3.1251  -1.4812  0.7974
H       -1.3777  0.9605  1.7883
H       -1.9558  -0.6890  2.2344
H       1.6163  -0.6836  -1.9564
H       0.7280  0.9328  -1.7824
H       3.5425  -0.0508  -0.9694
H       2.6583  1.4883  -0.1120
H       2.8487  -1.3254  0.3494
H       3.4544  0.1919  1.4245
H       1.1147  -0.8211  2.1491
H       1.1150  0.6348  1.9921
H       -1.6821  -0.9415  -1.5060
