27

Co      0.0000  0.0000  0.0000
Cl      -0.0007  -2.3275  -0.2641
Cl      0.0184  2.3398  0.1714
N       -1.4848  0.1128  -1.3810
N       -1.4019  -0.1900  1.1346
N       1.4872  0.1912  -1.3800
N       1.5624  -0.0387  1.3734
C       -2.7327  0.4902  -0.6410
C       -2.7087  -0.3573  0.6072
C       2.5690  0.3573  -0.7491
C       2.7670  -0.3348  0.6123
H       -0.8960  0.9758  -1.7987
H       -2.8217  1.6045  -0.7341
H       -3.6608  -0.0676  -1.0166
H       -3.7070  -0.4463  1.1663
H       -2.6287  -1.5201  0.7991
H       -1.3924  0.4351  2.0615
H       -1.5907  -1.1150  1.6979
H       1.3212  -0.8278  -1.6497
H       1.6435  1.0278  -1.9911
H       3.7560  0.0715  -0.8962
H       3.1527  1.3491  -0.3101
H       2.3584  -1.3557  0.1263
H       3.8420  -0.3070  1.0156
H       1.3210  -0.9266  1.8345
H       0.8946  1.0312  1.6005
H       -1.3530  -0.4638  -2.3760
