27

Co      0.0000  0.0000  0.0000
Cl      -0.0475  -2.1779  -0.1332
Cl      0.0036  2.2985  0.3145
N       -1.5161  0.1423  -1.3860
N       -1.5358  -0.1561  1.3136
N       1.3287  0.0468  -1.2325
N       1.4627  -0.1964  1.2204
C       -2.6025  0.3248  -0.6733
C       -2.7704  -0.3163  0.8073
C       2.7778  0.4911  -0.6123
C       2.8139  -0.2637  0.6248
H       -1.6470  1.0220  -1.9528
H       -2.7778  1.3118  -0.2020
H       -3.3889  -0.1084  -1.2815
H       -3.5299  0.3861  1.3212
H       -2.8180  -1.2412  -0.0132
H       -1.2932  0.7404  1.7972
H       -1.6898  -0.9857  1.9572
H       1.9155  -0.4744  -2.2648
H       1.4062  1.0073  -1.7287
H       3.9272  0.2248  -0.8227
H       3.0550  1.6052  -0.6970
H       2.8531  -1.3603  0.6015
H       3.3974  0.0100  1.5652
H       1.1430  -0.8421  1.9575
H       1.3125  0.5646  1.9179
H       -1.6167  -0.7726  -1.7958
