27

Co      0.0000  0.0000  0.0000
Cl      -0.0523  -2.2410  -0.1671
Cl      -0.0127  2.2170  0.2172
N       -1.3973  0.1195  -1.3907
N       -1.5021  -0.1268  1.3575
N       1.3351  0.1486  -1.1710
N       1.5458  -0.1486  1.3244
C       -2.6756  0.4157  -0.6658
C       -2.8256  -0.4844  0.6854
C       2.8195  0.4493  -0.5433
C       2.7788  -0.3962  0.4373
H       -1.6917  0.8512  -2.1918
H       -2.9233  1.4344  -0.2972
H       -3.2823  -0.1136  -1.4803
H       -3.6958  0.5247  0.9394
H       -2.5130  -1.5235  0.3750
H       -1.5623  0.6985  1.9271
H       -1.9763  -1.1768  1.8266
H       1.8191  -0.5397  -1.9483
H       1.5255  0.9116  -1.9139
H       3.5166  0.2392  -1.3620
H       2.7458  1.5413  -0.5332
H       2.8724  -1.3897  0.0150
H       3.6963  -0.2111  0.9755
H       1.0284  -0.8767  1.9087
H       1.7923  0.4137  2.3172
H       -1.3270  -0.8502  -1.7422
