27

Co      0.0000  0.0000  0.0000
Cl      0.1184  -2.2084  -0.1301
Cl      0.0930  2.3536  0.2385
N       -1.5083  0.1355  -1.3123
N       -1.3115  -0.0519  1.3910
N       1.4345  0.2856  -1.2305
N       1.5167  -0.1137  1.2900
C       -2.8570  0.4370  -0.5787
C       -2.8200  -0.4421  0.6772
C       2.8792  0.4192  -0.5376
C       2.9598  -0.4651  0.7776
H       -1.1867  1.0642  -1.7196
H       -2.9841  1.4588  -0.2987
H       -3.8042  -0.2161  -0.8950
H       -3.4578  0.2020  1.4021
H       -2.8511  -1.4621  0.3243
H       -2.0437  0.6415  2.1393
H       -1.0301  -0.8775  1.9220
H       1.9747  -0.6610  -1.5342
H       1.6469  1.1392  -1.8606
H       3.5599  -0.3188  -1.1627
H       2.6981  1.4314  -0.1120
H       2.9849  -1.4628  0.2072
H       4.0046  -0.7426  1.3763
H       1.2207  -0.8489  1.9396
H       1.4202  0.5602  2.1306
H       -1.5176  -0.3835  -2.3988
