27

Co      0.0000  0.0000  0.0000
Cl      0.0953  -2.3145  -0.2117
Cl      0.0503  2.3039  0.2634
N       -1.5226  0.1403  -1.3869
N       -1.4997  -0.1382  1.4261
N       1.5254  0.2613  -1.3386
N       1.5635  -0.1394  1.2706
C       -2.7653  0.4519  -0.6486
C       -2.7626  -0.2477  0.6785
C       2.7946  0.4597  -0.7170
C       2.6929  -0.3311  0.8056
H       -1.1692  0.9272  -1.9157
H       -2.6816  1.4765  -0.2816
H       -3.2260  0.4207  -1.8553
H       -3.7435  0.0219  1.1174
H       -3.2160  -1.2964  0.5142
H       -1.0408  0.8906  1.7026
H       -0.9266  -0.5999  2.2727
H       1.4496  -0.6095  -1.8543
H       1.2653  1.1738  -1.7639
H       3.7342  0.0741  -1.1624
H       3.4925  1.5178  -0.5717
H       3.1051  -1.3952  0.6563
H       3.8100  -0.1158  1.1166
H       1.3621  -0.6950  2.1243
H       1.4301  0.7711  1.7050
H       -1.8868  -0.8447  -1.6520
