27

Co      0.0000  0.0000  0.0000
Cl      0.0443  -2.2437  -0.2976
Cl      0.0131  2.2356  0.1423
N       -1.4795  0.1063  -1.5331
N       -1.4829  -0.1989  1.3140
N       1.5345  0.2072  -1.3198
N       1.4951  -0.1401  1.4916
C       -2.6680  0.4067  -0.7486
C       -2.6884  -0.3021  0.6565
C       2.7142  0.4801  -0.7372
C       2.7163  -0.4558  0.4642
H       -1.0661  0.6671  -2.3150
H       -3.3205  1.4340  -0.5088
H       -3.7631  0.4344  -1.1757
H       -3.3871  0.1649  1.3745
H       -3.2297  -1.2326  -0.0081
H       -1.7144  0.5721  1.9645
H       -1.0471  -1.0216  1.7694
H       1.7221  -0.7684  -1.6365
H       1.4885  0.4513  -2.5745
H       3.2241  0.0748  -1.7311
H       2.9587  1.5212  -0.5115
H       3.0252  -1.4963  0.1981
H       3.7652  -0.2204  0.8352
H       1.0909  -1.1307  1.7519
H       1.4423  0.9081  1.6816
H       -1.1936  -0.9426  -1.7758
