27

Co      0.0000  0.0000  0.0000
Cl      -0.0727  -2.2253  -0.1334
Cl      -0.0535  2.1958  0.2369
N       -1.5835  0.0240  -1.2852
N       -1.4208  -0.2642  1.3656
N       1.3804  0.2291  -1.1508
N       1.3466  -0.2211  1.4150
C       -2.7483  0.4948  -0.5289
C       -2.8281  -0.4076  0.7789
C       2.6265  0.4412  -0.4419
C       2.7324  -0.3782  0.6650
H       -1.3460  0.8620  -1.8197
H       -2.9083  1.5889  -0.5345
H       -3.7013  0.4576  -1.1203
H       -3.6275  0.1782  1.3072
H       -3.1959  -1.4643  0.6909
H       -1.5165  0.5502  1.9843
H       -1.1746  -0.7438  2.3056
H       1.1270  -0.6302  -1.7058
H       1.9015  1.3242  -1.5904
H       3.4044  0.1020  -1.0995
H       3.2640  1.4940  -0.2955
H       3.3319  -1.4901  0.8655
H       3.4157  0.1897  1.3729
H       1.5483  -0.9107  2.2200
H       2.0620  0.7140  1.7411
H       -1.8664  -0.6051  -2.1502
