27

Co      0.0000  0.0000  0.0000
Cl      -0.0836  -2.2432  -0.2042
Cl      -0.1388  2.4387  0.2110
N       -1.6021  0.3068  -1.4010
N       -1.3903  -0.1953  1.2523
N       1.3004  0.1415  -1.2485
N       1.2996  -0.1825  1.3906
C       -2.8208  0.3743  -0.6855
C       -2.9113  -0.2657  0.6848
C       2.8798  0.5252  -0.5993
C       2.7200  -0.4808  0.5797
H       -1.2684  0.8206  -2.2627
H       -2.9824  1.3071  0.0359
H       -3.6359  0.0384  -1.3013
H       -3.5781  0.1313  1.4956
H       -2.7224  -1.4236  0.9594
H       -1.3117  0.6982  1.7206
H       -1.5592  -0.9118  2.0098
H       1.6970  -0.6397  -1.8545
H       0.7352  0.6865  -2.0191
H       3.7971  0.2370  -1.1127
H       2.7458  1.6678  -0.7681
H       2.6231  -1.5543  0.4789
H       3.3588  0.0792  1.3469
H       0.9542  -0.8848  2.0404
H       1.3741  0.7065  1.8431
H       -1.9425  -0.8003  -1.4698
