27

Co      0.0000  0.0000  0.0000
Cl      0.0431  -2.3929  -0.1565
Cl      0.0572  2.2586  0.3479
N       -1.5371  -0.0633  -1.3472
N       -1.5469  -0.1154  1.3047
N       1.3201  -0.0243  -1.2081
N       1.4239  -0.2890  1.4852
C       -2.8608  0.3257  -0.4490
C       -2.6818  -0.4767  0.6744
C       2.7569  0.3721  -0.6278
C       2.7689  -0.4507  0.6623
H       -1.0860  0.7335  -1.8807
H       -2.8860  1.4948  -0.7974
H       -3.5228  -0.0443  -1.2724
H       -3.4222  -0.0623  1.3482
H       -2.7551  -1.6370  1.0279
H       -1.5193  0.6858  1.9089
H       -1.6171  -0.9799  1.8760
H       1.7460  -0.8929  -1.6993
H       1.7173  0.5679  -2.2029
H       3.9186  0.6231  -1.0598
H       2.3602  1.4733  -0.5226
H       2.6249  -1.5152  0.5110
H       3.4966  -0.0947  1.3921
H       1.1816  -1.1195  2.0116
H       1.7328  0.5632  1.9771
H       -1.7481  -0.6987  -2.2171
