27

Co      0.0000  0.0000  0.0000
Cl      -0.0549  -2.3211  -0.1346
Cl      -0.0312  2.1759  0.2302
N       -1.4456  0.2202  -1.1525
N       -1.5235  -0.1933  1.3120
N       1.4204  0.2431  -1.3753
N       1.4470  -0.1442  1.3984
C       -2.8384  0.3957  -0.6774
C       -2.6959  -0.4081  0.6252
C       2.6343  0.2866  -0.5881
C       2.8129  -0.3940  0.5663
H       -1.3615  0.8649  -1.9658
H       -2.9905  1.3643  -0.0430
H       -3.6270  -0.0839  -1.2623
H       -3.7800  -0.3334  0.9993
H       -2.6994  -1.4500  0.3309
H       -1.8829  0.6696  1.7752
H       -1.3346  -0.9723  1.9182
H       1.3191  -0.8283  -1.5540
H       1.6001  1.1148  -1.9531
H       3.7703  0.3023  -0.9557
H       3.0999  1.3799  -0.6148
H       3.3935  -1.4678  0.5525
H       3.8738  0.0469  0.8187
H       0.3814  -0.8068  1.8952
H       1.7820  0.6303  2.0311
H       -1.3327  -0.4988  -1.9174
