27

Co      0.0000  0.0000  0.0000
Cl      -0.0672  -2.3776  -0.2730
Cl      -0.0457  2.2572  0.1353
N       -1.4705  0.0667  -1.4357
N       -1.4137  -0.1611  1.2756
N       1.4594  0.1336  -1.3302
N       1.3706  -0.2273  1.2469
C       -2.7588  0.2433  -0.5339
C       -2.7889  -0.5511  0.5566
C       2.6645  0.2373  -0.6351
C       2.5738  -0.4443  0.5891
H       -1.3846  0.9128  -1.9851
H       -2.6549  1.2745  -0.1765
H       -3.3707  0.0538  -1.4650
H       -3.7202  -0.1469  1.0117
H       -3.1032  -1.6112  0.4886
H       -1.8646  0.5966  1.9319
H       -1.3502  -0.9352  1.9171
H       1.5527  -0.6518  -1.9601
H       0.9240  0.6218  -2.2015
H       3.5862  0.2663  -1.2661
H       3.0050  1.3493  -0.6974
H       2.9913  -1.6022  0.9558
H       3.4965  -0.2895  1.1821
H       1.6194  -1.4416  1.4744
H       1.7364  0.3014  2.2778
H       -1.9164  -0.7941  -1.9082
