27

Co      0.0000  0.0000  0.0000
Cl      0.0234  -2.2193  -0.2643
Cl      0.1389  2.2666  0.1993
N       -1.3533  0.1740  -1.4051
N       -1.5050  -0.0569  1.2899
N       1.6923  0.2067  -1.4598
N       1.5042  -0.1193  1.3566
C       -2.6272  0.2546  -0.8240
C       -2.7144  -0.4482  0.7066
C       2.8414  0.3800  -0.6954
C       2.8295  -0.2144  0.4189
H       -1.0199  0.9341  -1.9779
H       -2.4755  1.2850  -0.4129
H       -3.5742  -0.0560  -1.2775
H       -3.5369  0.3095  1.1335
H       -2.7167  -1.5256  0.6634
H       -1.7093  0.7531  1.8637
H       -1.5027  -0.9909  1.7792
H       1.3769  -0.4917  -2.2504
H       1.3453  1.2195  -1.7550
H       3.6146  0.0247  -1.3562
H       2.8909  1.4658  -0.6905
H       2.8282  -1.3366  0.5170
H       3.6393  -0.1951  1.1746
H       1.6396  -0.7425  2.2466
H       1.9391  0.5913  2.0776
H       -1.4363  -0.6755  -1.9225
