27

Co      0.0000  0.0000  0.0000
Cl      -0.0843  -2.2658  -0.1571
Cl      -0.0059  2.2615  0.2149
N       -1.3930  0.2380  -1.3572
N       -1.3040  -0.2143  1.3882
N       1.5772  0.1629  -1.6109
N       1.3591  -0.1371  1.3357
C       -2.8981  0.3489  -0.6744
C       -2.8364  -0.4372  0.5351
C       2.7288  0.3780  -0.6777
C       2.8182  -0.3337  0.5834
H       -1.5464  1.1263  -1.9112
H       -2.9804  1.3477  -0.2049
H       -3.5476  0.0117  -1.5150
H       -3.7293  -0.5126  1.2430
H       -2.7557  -1.4612  0.1336
H       -1.6051  0.6967  1.7982
H       -1.3555  -0.9684  2.0922
H       1.4549  -0.7244  -2.0779
H       1.1894  1.0369  -2.0258
H       3.4419  -0.0081  -1.4096
H       3.1741  1.3107  0.0163
H       2.4682  -1.3826  0.3328
H       3.3775  0.0063  1.5219
H       1.1350  -0.8319  2.0241
H       1.5274  0.6298  1.9977
H       -1.0195  -0.5678  -2.0087
