27

Co      0.0000  0.0000  0.0000
Cl      0.0924  -2.2027  -0.0983
Cl      0.0871  2.3516  0.3250
N       -1.4577  0.0344  -1.3176
N       -1.4898  -0.1530  1.4296
N       1.4557  0.2200  -1.2921
N       1.5042  -0.0530  1.2773
C       -2.4756  0.3968  -0.4968
C       -2.7467  -0.4485  0.5839
C       2.7644  0.3997  -0.6580
C       2.7504  -0.4604  0.7220
H       -0.9874  0.7015  -1.9580
H       -2.2937  1.4009  -0.0184
H       -3.4711  0.4728  -1.0489
H       -3.2805  0.0597  1.4870
H       -2.9114  -1.4620  0.2353
H       -1.7658  0.9293  1.5521
H       -0.7558  -0.8927  1.9055
H       1.2165  -0.5967  -1.9024
H       1.1019  0.9139  -1.9585
H       3.6777  0.2239  -1.2099
H       2.7139  1.4232  -0.2265
H       2.7803  -1.5965  0.8246
H       3.4021  -0.7362  1.8445
H       1.3260  -0.9437  1.7530
H       1.4380  0.7154  1.9562
H       -1.4888  -0.8052  -1.8485
