27

Co      0.0000  0.0000  0.0000
Cl      0.0375  -2.2722  -0.0700
Cl      0.0204  2.2515  0.3098
N       -1.5821  0.1590  -1.3348
N       -1.4743  -0.1733  1.5485
N       1.4492  0.1321  -1.3336
N       1.4386  -0.2862  1.2896
C       -2.7211  0.3995  -0.6894
C       -2.7364  -0.3864  0.6368
C       2.6029  0.4811  -0.6244
C       2.6990  -0.4468  0.7523
H       -1.2446  1.0788  -1.7178
H       -2.3615  1.4259  -0.3111
H       -3.4972  -0.1831  -1.2440
H       -3.5323  -0.1906  1.3260
H       -2.8490  -1.4819  0.6287
H       -1.8304  0.6949  2.0236
H       -1.7412  -0.9086  2.3295
H       1.2655  -0.7098  -1.8997
H       1.8853  1.2427  -1.7327
H       3.4667  -0.0430  -1.0972
H       2.9246  1.5054  -0.2821
H       3.1257  -1.5188  0.6976
H       3.6835  0.3466  0.9576
H       1.3629  -0.7935  2.2571
H       1.7953  0.2710  2.2886
H       -1.7625  -0.5887  -2.0067
