27

Co      0.0000  0.0000  0.0000
Cl      -0.0458  -2.3699  -0.2184
Cl      -0.0084  2.3197  0.1749
N       -1.5132  0.1460  -1.4332
N       -1.5172  -0.1784  1.3267
N       1.4912  0.3179  -1.3570
N       1.5618  -0.0674  1.3664
C       -2.6246  0.4799  -0.5930
C       -2.6473  -0.5007  0.5900
C       2.8184  0.3988  -0.6312
C       2.9365  -0.3904  0.5119
H       -1.2428  0.7340  -2.2459
H       -2.5680  1.6086  -0.7318
H       -3.5494  0.1841  -1.0964
H       -3.6308  0.2309  0.8236
H       -2.8074  -1.4625  -0.0414
H       -1.5235  0.6961  1.8201
H       -1.7112  -1.1098  1.8587
H       1.7526  -0.7034  -1.5925
H       1.4500  0.8035  -2.3356
H       3.3372  0.0738  -1.6352
H       2.9765  1.4668  -0.5298
H       2.2552  -1.4675  0.3115
H       3.7295  -0.0844  1.1767
H       1.3225  -0.9541  1.8194
H       1.3336  0.8166  1.8499
H       -1.5165  -0.6097  -2.1221
