27

Co      0.0000  0.0000  0.0000
Cl      0.0160  -2.2974  -0.1729
Cl      0.0505  2.3265  0.2619
N       -1.5062  0.1753  -1.2773
N       -1.4424  -0.1552  1.4397
N       1.5141  0.1983  -1.2488
N       1.3630  -0.1830  1.1444
C       -2.7981  0.3345  -0.6949
C       -2.8355  -0.4426  0.5734
C       2.7990  0.3824  -0.6910
C       2.7367  -0.2713  0.7246
H       -1.2966  1.0252  -1.7875
H       -2.5331  1.4290  -0.6030
H       -3.9064  0.3282  -1.0807
H       -3.5260  -0.0334  1.3197
H       -2.6715  -1.4448  0.0443
H       -1.2830  0.8369  1.7270
H       -1.1399  -1.0691  1.8583
H       1.7567  -0.9997  -1.1808
H       1.3167  0.5714  -2.3222
H       3.4625  -0.2263  -1.3936
H       2.7595  1.4561  -0.5965
H       2.7554  -1.3185  0.3610
H       3.9660  -0.2741  0.9613
H       1.4491  -0.7859  2.0451
H       1.0264  0.4516  2.0788
H       -1.6828  -0.6253  -1.8707
