27

Co      0.0000  0.0000  0.0000
Cl      0.0422  -2.3478  -0.3148
Cl      0.0750  2.3324  0.1490
N       -1.4081  0.3117  -1.2940
N       -1.3433  -0.0736  1.3665
N       1.4661  0.0705  -1.2782
N       1.3851  -0.0840  1.2468
C       -2.8985  0.2518  -0.7826
C       -2.6239  -0.4201  0.6437
C       2.8227  0.4705  -0.7384
C       2.7153  -0.3888  0.6657
H       -1.5110  1.0382  -2.0449
H       -2.9293  1.2718  -0.3940
H       -3.8197  0.2709  -1.4190
H       -3.4718  -0.3604  1.3489
H       -3.3222  -1.4311  0.3296
H       -1.5594  0.7178  1.9995
H       -1.8905  -0.7710  2.2793
H       1.8382  -0.9190  -1.5301
H       1.4181  0.9959  -1.7375
H       3.6270  0.1824  -1.4168
H       2.9898  1.5927  -0.8426
H       2.3892  -1.4478  0.3495
H       3.7259  -0.1102  1.0386
H       1.3032  -0.9140  1.8285
H       1.1619  0.6548  1.9710
H       -1.3739  -0.3774  -2.1462
