27

Co      0.0000  0.0000  0.0000
Cl      -0.0453  -2.2524  -0.2768
Cl      0.0067  2.2137  0.1471
N       -1.3640  0.1450  -1.3294
N       -1.4597  -0.1646  1.2351
N       1.3788  0.1344  -1.5136
N       1.4264  -0.1561  1.2097
C       -2.9003  0.3895  -0.7108
C       -2.8103  -0.4982  0.5285
C       2.7814  0.3188  -0.6889
C       2.7858  -0.2824  0.6046
H       -1.4868  0.9906  -1.9380
H       -2.6250  1.5994  -1.1355
H       -3.4996  0.5062  -1.8362
H       -3.4808  -0.2727  1.3650
H       -2.4595  -1.4861  -0.0894
H       -1.5986  0.6150  1.8634
H       -1.2937  -0.6081  2.2673
H       1.8148  -0.6750  -2.0963
H       1.4595  0.8194  -2.3099
H       3.7415  0.3237  -1.2782
H       3.1545  1.4005  -0.6559
H       2.9240  -1.3215  0.3989
H       3.8323  -0.0912  0.9920
H       1.0545  -1.0556  1.6173
H       2.1835  0.4867  2.0215
H       -1.1802  -0.9266  -1.4784
