27

Co      0.0000  0.0000  0.0000
Cl      0.0208  -2.2468  -0.1657
Cl      -0.0841  2.3717  0.2648
N       -1.5491  0.3383  -1.3629
N       -1.5178  -0.0559  1.4893
N       1.5777  0.1285  -1.4318
N       1.4312  -0.1323  1.3086
C       -2.7426  0.4585  -0.6068
C       -2.7784  -0.2658  0.7010
C       2.8257  0.4619  -0.4395
C       2.8528  -0.3525  0.6509
H       -0.9029  0.7789  -2.2242
H       -3.2624  1.4267  -0.1112
H       -3.5040  0.0809  -1.2692
H       -3.6203  -0.1279  1.4211
H       -2.9980  -1.4380  1.1795
H       -1.8437  0.7461  2.0813
H       -1.2931  -0.8808  2.0105
H       1.5221  -0.6881  -1.9955
H       1.4657  1.1957  -1.7091
H       3.3623  0.0281  -1.3840
H       2.7075  1.5300  -0.3150
H       2.9497  -1.4680  0.7476
H       3.6149  -0.2336  1.4541
H       1.3711  -0.7943  2.0777
H       1.8617  0.7052  1.8279
H       -1.7983  -0.4982  -1.8974
