27

Co      0.0000  0.0000  0.0000
Cl      0.0579  -2.4066  -0.2247
Cl      0.0154  2.2850  0.1888
N       -1.4819  0.1704  -1.3128
N       -1.4659  -0.0733  1.2500
N       1.5587  0.2116  -1.3170
N       1.5179  -0.1069  1.3901
C       -2.8178  0.4291  -0.5995
C       -2.7850  -0.3861  0.6607
C       2.5681  0.3340  -0.6063
C       2.8714  -0.3446  0.5483
H       -1.2272  0.8968  -1.9558
H       -2.5899  1.5293  -0.4790
H       -3.7318  0.6587  -1.3287
H       -4.0252  -0.3773  0.8941
H       -3.2022  -1.4186  0.3437
H       -1.1370  0.9103  1.6074
H       -1.0648  -0.6582  2.0140
H       1.6409  -0.5984  -1.9045
H       1.1516  0.9673  -1.9041
H       3.2813  0.2496  -1.4404
H       2.6181  1.2333  0.3187
H       2.9953  -1.4765  0.7164
H       3.7431  -0.1567  1.1840
H       1.4204  -1.2621  1.5800
H       1.3665  0.4870  2.3583
H       -1.5466  -0.8773  -1.5080
