27

Co      0.0000  0.0000  0.0000
Cl      0.0657  -2.1521  -0.3014
Cl      -0.0325  2.3352  0.1356
N       -1.4906  0.3222  -1.4191
N       -1.5078  -0.0297  1.2202
N       1.3318  0.1762  -1.4768
N       1.3515  -0.0443  1.2143
C       -2.7567  0.5341  -0.6210
C       -2.9053  -0.3603  0.7101
C       2.9460  0.4870  -0.6444
C       2.7433  -0.2182  0.5966
H       -1.4581  1.2107  -1.9469
H       -2.5211  1.6757  -0.7453
H       -3.4999  0.5054  -1.4753
H       -3.6932  0.4562  1.1556
H       -2.7180  -1.3730  0.3140
H       -1.2998  0.7810  1.8383
H       -1.4221  -0.9651  1.6831
H       1.2345  -0.8724  -1.6988
H       1.9650  0.9210  -2.3444
H       3.7431  0.5058  -1.4283
H       2.7401  1.6336  -0.8193
H       2.3616  -1.2918  0.4287
H       3.5344  -0.3071  1.4428
H       1.1154  -0.4498  2.2391
H       2.0035  0.6943  1.8908
H       -1.4572  -0.4574  -2.0437
