27

Co      0.0000  0.0000  0.0000
Cl      0.0037  -2.3270  -0.1974
Cl      -0.0273  2.1494  0.2661
N       -1.5505  0.0253  -1.3961
N       -1.5286  -0.2339  1.3905
N       1.2549  0.1672  -1.2401
N       1.4125  -0.2499  1.4075
C       -2.9089  0.3603  -0.6737
C       -2.6644  -0.4711  0.8781
C       2.8248  0.2200  -0.5621
C       2.8339  -0.4733  0.7566
H       -1.2318  0.5434  -2.2759
H       -3.4209  1.3978  -0.4678
H       -3.6523  -0.0146  -1.3864
H       -3.6299  0.1208  1.1956
H       -2.8079  -1.5135  0.6739
H       -1.5448  0.5905  1.9832
H       -1.3827  -0.7037  2.3628
H       1.7987  -0.5659  -1.9351
H       1.8808  1.1276  -1.8478
H       3.7515  0.2690  -1.2170
H       3.3669  1.3774  -0.8413
H       2.7653  -1.5394  0.5570
H       3.6295  -0.6991  1.6384
H       1.2182  -0.9649  2.0789
H       1.7878  0.7680  1.5992
H       -1.5741  -0.9140  -1.7819
