27

Co      0.0000  0.0000  0.0000
Cl      0.0263  -2.3029  -0.2274
Cl      -0.0388  2.2745  0.2474
N       -1.4030  0.1430  -1.3504
N       -1.5657  -0.0745  1.2809
N       1.4948  0.0004  -1.3509
N       1.5121  -0.2351  1.1820
C       -2.5177  0.2983  -0.6268
C       -2.7700  -0.3045  0.5562
C       2.8542  0.4128  -0.6642
C       2.8659  -0.3425  0.6440
H       -1.2004  0.8281  -2.0492
H       -2.9817  1.3581  -0.5775
H       -3.1921  -0.0444  -1.4318
H       -3.2760  -0.0108  1.6057
H       -3.1255  -1.3766  0.5295
H       -1.3526  0.5808  2.1575
H       -0.9854  -0.7934  1.8460
H       1.8122  -0.9256  -1.7130
H       1.2347  0.8307  -1.8771
H       3.5562  0.0517  -1.4393
H       3.2448  1.4646  -0.5399
H       2.5418  -1.2606  -0.3061
H       3.7976  0.0786  1.0634
H       1.0251  -1.1502  1.5482
H       1.3502  0.5037  1.9154
H       -1.7800  -0.8211  -1.6580
