27

Co      0.0000  0.0000  0.0000
Cl      0.0069  -2.2555  -0.1241
Cl      -0.0561  2.2127  0.3154
N       -1.4596  0.1023  -1.4430
N       -1.4187  -0.1493  1.3505
N       1.4514  0.1714  -1.2976
N       1.5783  -0.2697  1.3908
C       -2.8451  0.3286  -0.6001
C       -2.8489  -0.3932  0.7957
C       2.7676  0.3276  -0.6375
C       2.8123  -0.5119  0.7834
H       -1.2705  0.6749  -2.2782
H       -2.4320  1.3419  -0.1564
H       -3.3570  -0.3508  -1.4589
H       -3.6923  -0.1012  1.3869
H       -3.1722  -1.3324  0.0553
H       -0.9665  0.7894  1.7984
H       -1.1242  -0.5831  2.3222
H       1.1580  -0.7232  -1.7690
H       0.9676  1.0270  -1.7355
H       3.8033  -0.0088  -0.9575
H       2.9357  1.3721  -0.3263
H       2.8781  -1.5437  0.4580
H       3.6049  0.1592  1.3004
H       1.0980  -1.1798  1.7588
H       1.8020  0.5653  1.9088
H       -1.4193  -0.9797  -1.5852
