27

Co      0.0000  0.0000  0.0000
Cl      -0.1212  -2.3714  -0.1960
Cl      -0.0063  2.3066  0.3042
N       -1.5454  0.1029  -1.4517
N       -1.5505  -0.1175  1.3703
N       1.4602  0.1297  -1.3743
N       1.4424  -0.1092  1.4350
C       -2.8594  0.3196  -0.6761
C       -2.9290  -0.4234  0.6723
C       2.5138  0.5724  -0.6719
C       2.7694  -0.4147  0.6025
H       -1.2089  0.4066  -2.5514
H       -3.0164  1.3110  -0.1838
H       -3.8591  0.3784  -1.2390
H       -3.4747  0.1365  1.5618
H       -3.2605  -1.4864  0.5797
H       -1.6961  0.6756  2.0018
H       -1.2681  -0.7965  2.0610
H       1.7076  -0.8303  -1.6909
H       1.0622  0.9353  -1.8804
H       3.6069  0.2106  -0.9176
H       2.5965  1.5146  0.0477
H       3.0558  -1.5533  0.8092
H       3.6662  -0.2778  1.2308
H       0.9031  -0.7936  2.0292
H       1.6245  0.8045  1.8499
H       -1.7344  -0.9662  -1.6031
