27

Co      0.0000  0.0000  0.0000
Cl      -0.0057  -2.2181  -0.1518
Cl      -0.0350  2.2416  0.2517
N       -1.5153  0.2595  -1.2811
N       -1.5087  -0.1165  1.2814
N       1.3106  0.1472  -1.4347
N       1.5528  -0.1916  1.4329
C       -2.7532  0.3623  -0.6167
C       -2.6892  -0.2766  0.6264
C       2.7844  0.3498  -0.6028
C       2.7479  -0.2998  0.7296
H       -1.2663  1.2524  -1.6049
H       -2.8436  1.4365  -0.5053
H       -3.5242  -0.1657  -1.1993
H       -3.8178  -0.3813  1.0226
H       -2.8790  -1.3826  0.6289
H       -1.8057  0.4429  2.2628
H       -1.4707  -1.1311  1.6698
H       1.0651  -0.8976  -1.6790
H       1.0791  0.6184  -2.3882
H       3.9704  0.2941  -0.8523
H       2.7714  1.3006  0.1674
H       2.8596  -1.3272  0.4301
H       3.9843  -0.1953  0.9136
H       1.5650  -0.7963  2.3044
H       1.7112  0.5941  2.0790
H       -1.5252  -0.7235  -1.5613
