27

Co      0.0000  0.0000  0.0000
Cl      0.0482  -2.2194  -0.2208
Cl      -0.0490  2.2137  0.2498
N       -1.5080  0.0717  -1.1876
N       -1.6034  -0.1812  1.3789
N       1.4111  -0.0622  -1.3739
N       1.3476  -0.1845  1.2896
C       -2.8373  0.3032  -0.5845
C       -2.7062  -0.4689  0.6130
C       2.7418  0.2386  -0.5032
C       2.7469  -0.4551  0.6711
H       -1.7977  0.9448  -1.8400
H       -2.7378  1.3422  -0.1793
H       -3.6338  0.2684  -1.3570
H       -3.1971  0.3240  1.4531
H       -2.6873  -1.6024  0.9135
H       -1.8753  0.8227  1.6000
H       -1.4724  -1.1283  1.7950
H       1.1957  -0.8457  -2.0539
H       1.4858  0.6936  -2.0951
H       3.7662  0.2509  -1.0033
H       2.8835  1.3084  -0.3620
H       2.2537  -1.5696  0.7177
H       3.7767  -0.2587  1.0583
H       1.4432  -0.7481  2.2394
H       1.7662  0.5495  1.9989
H       -1.7619  -0.5678  -2.0468
