27

Co      0.0000  0.0000  0.0000
Cl      0.0929  -2.2799  -0.1244
Cl      0.0846  2.3228  0.3002
N       -1.4694  0.1000  -1.3147
N       -1.5295  -0.2484  1.4690
N       1.6024  0.1268  -1.2986
N       1.5617  -0.1844  1.4535
C       -2.8103  0.4200  -0.5467
C       -2.6860  -0.3724  0.7917
C       2.8875  0.2870  -0.4059
C       2.8170  -0.2455  0.6529
H       -0.7852  0.8906  -1.7732
H       -2.2700  1.5444  -0.5818
H       -3.6301  -0.0142  -1.1182
H       -3.7886  0.0512  1.0276
H       -3.5243  -1.4353  0.7949
H       -1.6973  0.3966  2.3341
H       -1.0957  -1.2113  1.7864
H       1.4508  -0.7175  -1.8494
H       1.0962  0.9564  -1.7490
H       3.5490  0.2468  -1.3644
H       3.3111  1.3941  -0.5768
H       3.0751  -1.2474  0.2537
H       3.6643  -0.5055  1.4921
H       1.7262  -0.8104  2.3166
H       2.0940  0.8023  1.6938
H       -1.7130  -0.6061  -2.0577
