27

Co      0.0000  0.0000  0.0000
Cl      -0.0792  -2.3135  -0.2508
Cl      -0.0843  2.3745  0.2559
N       -1.5460  0.0421  -1.4157
N       -1.5607  -0.0839  1.2550
N       1.5503  0.1584  -1.4145
N       1.3540  -0.1511  1.2995
C       -2.7830  0.4883  -0.7322
C       -2.8474  -0.5114  0.7063
C       2.7452  0.3479  -0.5864
C       2.7861  -0.4136  0.6346
H       -1.7875  0.5450  -2.4896
H       -2.3230  1.5697  -0.5641
H       -3.7565  -0.1130  -1.0190
H       -3.4128  -0.0465  1.6139
H       -2.7617  -1.5993  0.6249
H       -1.4981  0.5995  2.0680
H       -1.2526  -0.8028  1.9028
H       1.7475  -0.8273  -1.6995
H       1.3742  0.5498  -2.4844
H       3.3657  0.1672  -1.5143
H       2.6922  1.4478  -0.6261
H       2.9082  -1.4969  0.5480
H       3.7843  -0.2439  1.1118
H       1.5989  -1.2193  1.6596
H       1.3206  0.9649  1.3917
H       -2.2117  -0.6369  -2.1796
