27

Co      0.0000  0.0000  0.0000
Cl      0.0408  -2.2270  -0.2385
Cl      -0.0596  2.3673  0.1342
N       -1.4529  0.2244  -1.3571
N       -1.5785  -0.0836  1.3176
N       1.5383  0.2131  -1.3681
N       1.3447  -0.2305  1.3011
C       -2.7970  0.4318  -0.5047
C       -2.8409  -0.2745  0.4341
C       2.7114  0.4902  -0.7470
C       2.7116  -0.3794  0.6409
H       -1.5850  1.2941  -1.6947
H       -2.8431  1.5123  -0.4021
H       -3.5888  0.0773  -1.1395
H       -3.6065  -0.2119  1.2382
H       -2.8454  -1.4070  0.6274
H       -1.5935  0.7771  1.8187
H       -1.1866  -1.0226  1.6688
H       1.1171  -0.5459  -2.0882
H       1.1283  0.8994  -2.0222
H       3.5173  -0.0723  -1.3171
H       3.4487  1.6231  -1.0711
H       2.3582  -1.4269  0.2418
H       4.0058  -0.4621  0.8126
H       0.8301  -0.8393  2.0267
H       1.3203  0.6482  1.8041
H       -1.1916  -0.7314  -1.7321
