27

Co      0.0000  0.0000  0.0000
Cl      -0.0861  -2.3570  -0.0819
Cl      -0.0335  2.3457  0.3125
N       -1.3341  0.1226  -1.1461
N       -1.4270  -0.2156  1.3430
N       1.5362  0.2424  -1.2124
N       1.3761  -0.0668  1.4965
C       -2.8664  0.4309  -0.5204
C       -2.8336  -0.4730  0.7468
C       2.7597  0.5975  -0.7061
C       2.6918  -0.5862  0.7171
H       -1.0091  0.9283  -1.6739
H       -2.6672  1.5408  -0.4923
H       -3.6232  -0.0498  -1.1730
H       -3.5520  0.4752  1.2205
H       -2.7676  -1.5769  0.7702
H       -1.6581  0.7094  1.7298
H       -1.7996  -0.8602  2.2602
H       1.5211  -0.6303  -1.7115
H       0.9229  1.0404  -1.6614
H       3.7919  0.0196  -0.9548
H       2.5542  1.6421  -0.4570
H       2.9237  -1.5247  -0.0639
H       3.6363  -0.3015  1.1885
H       1.0053  -0.6894  2.2592
H       1.5108  0.4940  2.5137
H       -1.3773  -0.8812  -1.4152
