27

Co      0.0000  0.0000  0.0000
Cl      -0.0259  -2.3057  -0.1596
Cl      -0.0091  2.2516  0.2438
N       -1.5012  0.1546  -1.2819
N       -1.5012  -0.1794  1.2780
N       1.2566  0.2330  -1.3879
N       1.2765  -0.0188  1.3211
C       -2.8432  0.4545  -0.5978
C       -2.7430  -0.2977  0.6416
C       2.6468  0.4453  -0.5333
C       2.6591  -0.4014  0.7114
H       -0.8837  0.8288  -1.9105
H       -2.7944  1.4906  -0.3467
H       -3.9181  0.1073  -0.8627
H       -3.6320  0.3410  1.0354
H       -2.9232  -1.2957  0.2248
H       -1.6885  0.4959  2.0977
H       -0.9526  -0.9809  1.7638
H       1.4951  -0.5615  -1.9961
H       1.1794  1.0489  -1.9759
H       3.5676  0.0574  -1.0032
H       2.9234  1.6285  -0.9971
H       3.0324  -1.3541  0.0160
H       3.3481  -0.1375  1.5153
H       1.3052  -1.0191  1.7354
H       1.3042  0.9717  1.6045
H       -1.6453  -0.4794  -2.1667
