27

Co      0.0000  0.0000  0.0000
Cl      0.0608  -2.3949  -0.2215
Cl      0.1859  2.3123  0.2470
N       -1.4751  -0.0488  -1.3242
N       -1.4761  -0.1568  1.3250
N       1.5589  0.1288  -1.3561
N       1.3216  -0.2050  1.3589
C       -2.5648  0.4094  -0.5142
C       -2.6308  -0.4489  0.6241
C       2.9343  0.5374  -0.6262
C       2.8471  -0.2806  0.6703
H       -1.6589  0.5496  -2.2392
H       -3.2068  1.4318  -0.2319
H       -3.1796  0.2462  -1.4801
H       -3.3662  0.0627  1.2764
H       -2.7650  -1.5503  0.7085
H       -1.5097  0.4866  2.2087
H       -1.1380  -0.7421  2.1212
H       1.8939  -0.8731  -1.6216
H       1.6313  0.7447  -2.2281
H       3.7467  -0.1613  -1.0935
H       3.1657  1.4314  0.2792
H       2.8235  -1.2588  0.0692
H       3.9494  -0.2553  1.0684
H       1.5446  -1.1969  1.8215
H       1.8062  0.5436  2.0339
H       -1.6884  -1.0502  -1.5862
