27

Co      0.0000  0.0000  0.0000
Cl      -0.0380  -2.3843  -0.2242
Cl      -0.0893  2.2046  0.1542
N       -1.6241  0.1860  -1.3857
N       -1.5456  -0.1749  1.4523
N       1.4378  0.2598  -1.3748
N       1.4704  -0.2908  1.3776
C       -2.8202  0.3592  -0.6284
C       -2.7146  -0.4302  0.7124
C       2.7956  0.3933  -0.7392
C       2.7028  -0.5128  0.8123
H       -1.4407  0.8064  -2.1546
H       -2.6300  1.5117  -0.8076
H       -3.9038  0.3636  -1.0516
H       -3.7723  -0.1833  1.0656
H       -3.3813  -1.4459  0.3824
H       -1.6809  0.8345  1.6846
H       -0.8609  -1.0042  1.8361
H       1.4304  -0.6695  -1.7792
H       1.2081  1.0174  -1.9921
H       3.7220  0.1069  -1.2438
H       3.0133  1.3289  0.0635
H       3.3384  -1.5447  0.5609
H       3.6079  -0.0709  1.2930
H       1.2084  -0.7758  2.3043
H       1.5579  0.4658  2.0693
H       -1.7901  -0.7459  -1.7614
