27

Co      0.0000  0.0000  0.0000
Cl      0.1069  -2.3418  -0.2263
Cl      0.0713  2.3574  0.2487
N       -1.3045  0.0693  -1.3103
N       -1.5622  -0.0401  1.4972
N       1.3505  0.2677  -1.3902
N       1.5628  -0.1602  1.4398
C       -2.7885  0.4728  -0.5687
C       -2.8174  -0.3817  0.5457
C       2.8138  0.4529  -0.8031
C       2.7916  -0.4031  0.7241
H       -1.4745  0.6789  -2.2180
H       -2.7919  1.5200  -0.2933
H       -3.6838  0.2401  -1.1478
H       -3.3780  0.2084  1.3832
H       -2.6051  -1.4824  0.5083
H       -1.9990  0.7062  2.1586
H       -1.7247  -0.7977  2.2246
H       1.9957  -0.8413  -1.4397
H       1.7322  0.9109  -2.2811
H       3.7316  -0.1792  -1.1819
H       2.7680  1.3804  -0.0029
H       2.6430  -1.3405  -0.1249
H       3.7125  -0.3225  1.3033
H       1.1729  -0.7052  2.2613
H       1.1879  0.7497  1.9212
H       -1.1699  -0.8100  -1.8221
