27

Co      0.0000  0.0000  0.0000
Cl      0.0820  -2.3378  -0.2479
Cl      0.1431  2.3613  0.2405
N       -1.5042  0.1174  -1.4236
N       -1.4432  -0.1697  1.4273
N       1.5329  0.2201  -1.3586
N       1.4728  -0.1037  1.3242
C       -2.6884  0.2895  -0.6784
C       -2.6827  -0.4286  0.5290
C       2.9590  0.4207  -0.7201
C       2.6232  -0.3721  0.5837
H       -1.4718  0.9442  -2.0014
H       -2.6136  1.4282  -0.9204
H       -3.2875  -0.2845  -1.4990
H       -3.0851  0.3872  1.4767
H       -3.3549  -1.5195  0.6965
H       -1.5355  0.7476  1.8457
H       -1.4904  -0.9578  2.0689
H       1.2494  -0.8122  -1.6231
H       1.9800  1.0334  -2.0903
H       3.4624  0.0578  -1.7445
H       2.7500  1.5141  -0.6559
H       2.8512  -1.4096  0.3174
H       3.8752  -0.4277  0.8221
H       1.1590  -0.7664  2.0016
H       1.4418  0.7953  1.7602
H       -1.1238  -0.5985  -2.2368
