27

Co      0.0000  0.0000  0.0000
Cl      -0.0378  -2.2998  -0.2560
Cl      -0.0199  2.2138  0.2061
N       -1.4518  0.0978  -1.3815
N       -1.6136  -0.1322  1.2748
N       1.5598  0.1056  -1.4409
N       1.4623  -0.0265  1.3206
C       -2.7540  0.4169  -0.5912
C       -2.9062  -0.2624  0.5009
C       2.8703  0.5155  -0.7182
C       2.6936  -0.3318  0.4597
H       -1.3431  0.7388  -2.1715
H       -3.0410  1.4338  -0.3028
H       -3.5473  -0.1336  -1.1417
H       -3.9392  0.0105  0.8628
H       -2.5286  -1.2880  0.1409
H       -1.7667  0.3648  2.3880
H       -1.1182  -1.0679  1.6329
H       1.0586  -0.8574  -1.8269
H       1.0899  0.7815  -2.0848
H       3.4843  -0.0507  -1.4971
H       3.2612  1.5520  -0.5018
H       2.9674  -1.5071  0.8169
H       3.5722  -0.4643  1.2253
H       1.7162  -1.2470  1.5286
H       1.3936  0.9709  1.6094
H       -1.3525  -0.7261  -1.9899
