27

Co      0.0000  0.0000  0.0000
Cl      0.0450  -2.2582  -0.2137
Cl      0.0530  2.4415  0.2093
N       -1.4063  0.2285  -1.3362
N       -1.5849  -0.0935  1.3593
N       1.5336  0.1861  -1.2834
N       1.4460  -0.0971  1.2273
C       -2.6804  0.3179  -0.6478
C       -2.5876  -0.3305  0.5277
C       2.9084  0.3654  -0.7454
C       2.8365  -0.3521  0.6098
H       -1.0995  0.5851  -2.4168
H       -3.3292  1.2991  -0.1421
H       -3.7854  0.3616  -1.0494
H       -3.6115  -0.1329  0.9438
H       -2.6670  -1.3575  0.2869
H       -1.5456  0.7881  1.8251
H       -1.0071  -0.9665  1.7361
H       1.7529  -0.4344  -2.1722
H       1.5636  1.1794  -1.7270
H       3.6566  0.1344  -1.5097
H       2.8341  1.4485  -0.5596
H       2.6352  -1.4594  0.5504
H       3.9115  0.0455  0.8663
H       1.2638  -1.0950  1.5889
H       1.6766  0.6592  1.8738
H       -1.7413  -0.6098  -1.8856
