27

Co      0.0000  0.0000  0.0000
Cl      -0.0324  -2.4258  -0.2250
Cl      0.0252  2.2836  0.1556
N       -1.2834  0.1015  -1.2011
N       -1.3254  -0.1086  1.3387
N       1.4792  0.1019  -1.2492
N       1.4177  -0.2684  1.4079
C       -2.9258  0.3199  -0.5372
C       -2.7342  -0.5471  0.6131
C       2.8072  0.4092  -0.6315
C       2.7990  -0.4774  0.6652
H       -1.4961  1.0001  -1.7806
H       -2.5599  1.4624  -0.6554
H       -3.4934  -0.1557  -1.4210
H       -3.6412  -0.3779  1.1868
H       -2.3830  -1.6412  0.4932
H       -1.6028  0.6272  2.0171
H       -1.5234  -1.1448  1.7527
H       2.0144  -0.4463  -2.2572
H       1.4240  0.8432  -1.9608
H       3.3765  0.2493  -1.6671
H       2.9434  1.4313  -0.3100
H       2.8908  -1.5233  0.4359
H       3.8895  -0.4537  1.0673
H       0.9620  -0.9999  1.9878
H       1.4328  0.5083  2.0652
H       -1.3342  -0.7352  -1.7615
