27

Co      0.0000  0.0000  0.0000
Cl      -0.0093  -2.3795  -0.1487
Cl      -0.0470  2.2822  0.2669
N       -1.3616  0.0355  -1.2598
N       -1.5062  -0.3243  1.3322
N       1.2946  0.1365  -1.2435
N       1.5924  -0.2815  1.3125
C       -2.8208  0.4204  -0.7488
C       -2.8145  -0.4262  0.7181
C       2.8379  0.3042  -0.7318
C       2.7451  -0.4412  0.7561
H       -1.5444  0.9324  -1.8284
H       -2.7704  1.4484  -0.3506
H       -3.6443  0.1061  -1.3854
H       -3.6406  -0.3817  1.4287
H       -2.7744  -1.4663  0.3404
H       -0.9614  0.7617  1.4968
H       -1.0505  -0.9878  1.9926
H       1.5324  -0.8115  -1.6164
H       1.3551  0.7579  -2.0982
H       3.7826  -0.0965  -1.1530
H       3.0881  1.2810  -0.1143
H       2.1748  -1.4608  0.3016
H       3.6523  0.2320  1.0963
H       1.3031  -0.8353  2.1702
H       1.8119  0.3132  2.2489
H       -1.5744  -0.8684  -1.6726
