27

Co      0.0000  0.0000  0.0000
Cl      -0.0017  -2.2829  -0.1910
Cl      0.0530  2.3564  0.2254
N       -1.4758  0.0415  -1.3761
N       -1.4517  -0.3024  1.3560
N       1.4380  -0.0115  -1.2995
N       1.4422  -0.0430  1.3778
C       -2.7351  0.3912  -0.7848
C       -2.7329  -0.5360  0.5314
C       2.7288  0.3627  -0.5963
C       2.7414  -0.3775  0.3874
H       -1.6423  1.0469  -1.8118
H       -2.6977  1.3781  -0.2033
H       -3.8360  0.6678  -1.3129
H       -3.5573  -0.5668  1.2966
H       -2.9540  -1.5440  0.0827
H       -1.2914  0.4875  2.0355
H       -1.4977  -0.7783  2.3868
H       1.7878  -0.7556  -1.9971
H       1.5569  1.0560  -1.6555
H       3.0720  -0.1826  -1.7318
H       2.9276  1.3498  -0.1705
H       2.7240  -1.4731  0.3602
H       3.7517  -0.7404  1.0505
H       1.1268  -0.9783  1.7403
H       0.8747  0.8344  1.8983
H       -1.6907  -0.7663  -1.9871
