27

Co      0.0000  0.0000  0.0000
Cl      -0.0311  -2.2557  -0.2387
Cl      -0.1249  2.3383  0.1772
N       -1.5463  0.2713  -1.4107
N       -1.4143  -0.0160  1.3078
N       1.3503  0.1922  -1.2673
N       1.3604  -0.0001  1.2989
C       -2.7175  0.4425  -0.5512
C       -2.7341  -0.3419  0.5262
C       2.5984  0.4014  -0.7850
C       2.6839  -0.5372  0.6306
H       -1.6871  1.2533  -1.8670
H       -3.0073  1.4461  -0.1767
H       -3.4196  0.2233  -1.3498
H       -3.6137  -0.0255  1.0588
H       -2.7740  -1.3312  0.0240
H       -1.3189  0.5501  2.3356
H       -1.2346  -0.8793  1.8253
H       1.3696  -0.6441  -1.8426
H       1.5113  1.0056  -1.9269
H       4.0651  0.7428  -0.8493
H       2.8590  1.4333  -0.3757
H       2.9274  -1.6900  0.8698
H       3.4055  -0.3146  1.4426
H       1.4885  -0.6510  2.1469
H       1.3069  1.0046  1.6092
H       -1.6810  -0.5950  -1.9041
