27

Co      0.0000  0.0000  0.0000
Cl      -0.0027  -2.3072  -0.2732
Cl      0.0565  2.3676  0.1177
N       -1.3174  0.2391  -1.4977
N       -1.4733  -0.1208  1.2540
N       1.6360  0.2953  -1.4162
N       1.5730  -0.1844  1.2656
C       -2.8326  0.3359  -0.6043
C       -2.6116  -0.2861  0.5603
C       2.8553  0.5135  -0.6125
C       2.8313  -0.3371  0.4445
H       -1.1268  0.9846  -2.1346
H       -2.7000  1.3401  -0.1224
H       -3.2664  -0.0482  -1.6692
H       -3.9028  0.1778  0.5376
H       -3.1945  -1.3294  0.5030
H       -1.2385  0.7436  1.7799
H       -0.6190  -0.7074  1.8701
H       1.9573  -0.6022  -1.8455
H       1.3447  0.7578  -2.3665
H       3.6007  0.4095  -1.4385
H       3.0468  1.6209  -0.6601
H       2.8978  -1.4383  0.4526
H       3.7947  -0.3285  1.0374
H       1.6152  -1.1632  1.6820
H       1.5169  0.7926  1.5756
H       -1.0945  -0.8117  -1.7244
