27

Co      0.0000  0.0000  0.0000
Cl      0.0304  -2.1916  -0.2480
Cl      -0.0600  2.4139  0.2142
N       -1.5189  0.1573  -1.4549
N       -1.4517  -0.0312  1.3744
N       1.4375  0.1002  -1.2477
N       1.4918  -0.1866  1.3440
C       -2.8930  0.5651  -0.6023
C       -2.8983  -0.3307  0.5932
C       2.7707  0.5630  -0.6671
C       2.8141  -0.3410  0.6483
H       -1.5957  0.7816  -2.3030
H       -2.7937  1.6148  -0.3691
H       -3.8133  0.1922  -1.0725
H       -3.7378  -0.3994  1.3661
H       -3.2091  -1.3700  0.3085
H       -1.3901  0.9021  1.7902
H       -1.2231  -0.8203  1.9545
H       1.3228  -0.7171  -1.8692
H       1.5378  0.6013  -2.2622
H       3.5561  -0.0565  -1.2029
H       3.3256  1.5390  -0.1807
H       2.3408  -1.4296  0.4683
H       3.6462  -0.2722  1.3663
H       2.1975  -1.0528  2.0939
H       1.7659  0.7228  1.7749
H       -1.3912  -0.8550  -1.7297
