27

Co      0.0000  0.0000  0.0000
Cl      0.0544  -2.3062  -0.2501
Cl      0.0026  2.2925  0.2600
N       -1.4206  0.0914  -1.4720
N       -1.2974  -0.1069  1.2860
N       1.4692  0.0947  -1.4701
N       1.5311  0.0143  1.2122
C       -2.8106  0.4856  -0.6778
C       -2.8220  -0.2920  0.5856
C       2.6906  0.4417  -0.5895
C       2.6904  -0.4853  0.5847
H       -1.9934  1.0432  -2.0787
H       -2.6563  1.5842  -0.6958
H       -3.3124  0.0602  -1.6749
H       -3.6146  0.0675  1.2236
H       -2.4424  -1.3161  0.1669
H       -1.5955  0.7580  1.7783
H       -1.0938  -0.7518  2.0380
H       1.3328  -0.7713  -1.9680
H       1.2249  0.8816  -2.0471
H       3.5603  0.2560  -1.1953
H       2.1762  1.6291  -0.9368
H       2.7948  -1.5978  0.7016
H       3.3040  -0.1309  1.4691
H       1.1118  -0.6586  1.8989
H       1.5124  0.6071  2.1747
H       -1.8935  -0.8185  -1.8705
