27

Co      0.0000  0.0000  0.0000
Cl      -0.0843  -2.2409  -0.1912
Cl      -0.0865  2.2670  0.1973
N       -1.5345  0.2471  -1.3839
N       -1.5549  -0.2062  1.2231
N       1.3817  0.1123  -1.4088
N       1.2471  -0.0844  1.1630
C       -2.7288  0.4365  -0.6107
C       -2.8425  -0.3553  0.5323
C       2.6320  0.4170  -0.6294
C       2.6072  -0.3694  0.5448
H       -1.2731  1.0399  -1.9453
H       -2.8599  1.6235  -1.0072
H       -3.9550  0.1415  -0.7123
H       -3.9282  -0.4198  0.9813
H       -2.6090  -1.4229  0.2650
H       -1.4805  0.7362  1.6093
H       -1.7800  -0.9953  1.9486
H       1.5203  -0.5242  -2.2908
H       0.8931  0.7753  -2.0786
H       3.3870  0.1755  -1.3520
H       2.5654  1.4238  -0.2017
H       2.7723  -1.4111  0.2889
H       3.6705  -0.2538  0.9362
H       1.7220  -0.8307  1.9904
H       1.3231  0.9499  1.4006
H       -1.3061  -0.6683  -1.8308
