27

Co      0.0000  0.0000  0.0000
Cl      -0.0068  -2.3356  -0.1883
Cl      0.0477  2.2290  0.2936
N       -1.3898  -0.0076  -1.3536
N       -1.4131  -0.2826  1.3668
N       1.6350  -0.0233  -1.3899
N       1.5043  -0.1303  1.4807
C       -2.6751  0.3303  -0.6778
C       -2.7497  -0.3083  0.4931
C       2.9894  0.4336  -0.6611
C       2.9367  -0.3134  0.4834
H       -1.5853  0.7771  -2.0596
H       -2.6362  1.2704  0.0634
H       -3.6068  0.3160  -1.2921
H       -3.2811  0.2220  1.3926
H       -2.6592  -1.4164  0.5658
H       -1.3294  0.3674  2.2359
H       -0.9864  -0.8001  2.2205
H       2.0724  -0.7720  -2.0463
H       1.1969  0.8183  -1.8513
H       3.8512  -0.3092  -1.0633
H       2.2438  1.5125  -0.5650
H       2.8750  -1.3557  0.1483
H       3.5862  -0.4472  1.5152
H       1.3214  -1.0644  1.9092
H       1.7377  0.7616  1.9074
H       -1.3616  -0.9927  -1.6645
