27

Co      0.0000  0.0000  0.0000
Cl      0.0872  -2.3377  -0.2805
Cl      -0.0004  2.1761  0.1479
N       -1.5396  0.1751  -1.4227
N       -1.3800  -0.1130  1.2865
N       1.3992  0.2347  -1.4063
N       1.3612  -0.1583  1.4360
C       -2.8113  0.4592  -0.6333
C       -2.7714  -0.2433  0.5010
C       2.8143  0.3711  -0.6586
C       2.7892  -0.4233  0.6036
H       -1.4010  0.8930  -2.0916
H       -2.7535  1.4869  -0.3724
H       -3.6829  0.1406  -1.1822
H       -3.4967  -0.2948  1.4158
H       -3.0285  -1.2846  0.2373
H       -1.5609  0.5335  2.1648
H       -1.3439  -0.5460  2.3408
H       1.6337  -0.6867  -1.7725
H       0.9466  0.9512  -1.9994
H       3.4632  -0.0286  -1.4794
H       2.3874  1.5309  -0.9095
H       3.1772  -1.5272  0.6369
H       3.6304  -0.0542  1.1962
H       1.0886  -1.1021  1.8295
H       1.2713  0.6895  1.9630
H       -1.6685  -0.9684  -1.4588
