27

Co      0.0000  0.0000  0.0000
Cl      -0.0927  -2.2727  -0.2055
Cl      -0.0310  2.3946  0.2215
N       -1.5057  0.1815  -1.4091
N       -1.4044  -0.1306  1.1962
N       1.4265  0.1869  -1.4035
N       1.2994  -0.0660  1.2917
C       -2.8947  0.4669  -0.5708
C       -2.8349  -0.3248  0.5050
C       2.6346  0.4201  -0.7330
C       2.6765  -0.2503  0.5681
H       -1.1887  0.8386  -2.1329
H       -2.9470  1.5078  -0.3341
H       -3.6421  -0.0632  -1.1900
H       -3.7414  -0.1305  1.0730
H       -2.8644  -1.4096  0.4654
H       -1.6660  0.6513  1.8209
H       -0.9581  -0.8492  1.8089
H       1.4282  -0.5905  -2.0618
H       1.8293  1.3089  -1.7661
H       3.7991  0.2912  -0.9904
H       2.5505  1.4632  -0.4274
H       3.3649  -1.3075  0.4132
H       3.5508  -0.4117  1.3430
H       1.4934  -0.7558  2.1083
H       1.8109  0.8382  1.7089
H       -1.4755  -0.5345  -2.1665
