27

Co      0.0000  0.0000  0.0000
Cl      -0.0601  -2.2333  -0.1574
Cl      -0.0332  2.3470  0.2412
N       -1.5753  0.3354  -1.2351
N       -1.5929  -0.1394  1.4591
N       1.5735  0.1252  -1.3926
N       1.5281  -0.1484  1.4202
C       -2.8082  0.3604  -0.7270
C       -2.8537  -0.5486  0.5429
C       2.6104  0.4629  -0.7332
C       2.7508  -0.3910  0.6166
H       -1.3841  1.2956  -1.5989
H       -3.2181  1.3919  -0.4774
H       -3.6727  0.0499  -1.3293
H       -3.2621  0.3485  1.4348
H       -2.6874  -1.4956  -0.1973
H       -1.5461  0.7755  1.8931
H       -2.0290  -0.7842  2.4050
H       1.8539  -0.6468  -2.0413
H       1.4981  0.8899  -2.0217
H       3.4432  0.1195  -1.3464
H       2.8726  1.4949  -0.5157
H       2.7062  -1.4546  0.4273
H       3.4228  -0.2984  1.5222
H       1.1305  -0.5904  2.3341
H       1.5589  0.8213  1.7463
H       -1.5629  -0.5523  -1.6959
