27

Co      0.0000  0.0000  0.0000
Cl      0.0452  -2.2401  -0.2118
Cl      -0.0018  2.4365  0.1667
N       -1.2725  0.2304  -1.2002
N       -1.3790  0.0174  1.4646
N       1.4601  0.3592  -1.2836
N       1.4702  -0.1663  1.3156
C       -2.8707  0.4831  -0.6049
C       -2.7979  -0.5257  0.6274
C       2.9449  0.3891  -0.6055
C       2.7381  -0.3966  0.6885
H       -1.1691  0.8738  -1.9940
H       -2.6040  1.5732  -0.4996
H       -3.5626  0.0175  -1.3344
H       -3.5706  0.2561  1.1059
H       -2.7748  -1.5643  0.3559
H       -1.1520  0.9151  1.9390
H       -1.2114  -0.8395  1.9952
H       1.1000  -0.5089  -1.8347
H       1.2872  0.9679  -2.1099
H       4.1181  0.0994  -0.7730
H       2.9680  1.4526  -0.3844
H       2.5224  -1.4722  0.5052
H       3.8453  -0.1376  0.9710
H       1.6948  -1.1422  1.8189
H       1.7302  0.5434  2.0556
H       -1.5076  -0.6616  -1.6453
