27

Co      0.0000  0.0000  0.0000
Cl      0.0308  -2.3045  -0.1889
Cl      -0.0275  2.2923  0.2416
N       -1.6581  0.1856  -1.3135
N       -1.6594  -0.0795  1.4453
N       1.4237  0.2291  -1.4462
N       1.5956  -0.1393  1.3734
C       -2.8685  0.5239  -0.6652
C       -2.9240  -0.2834  0.7423
C       2.7505  0.5524  -0.4609
C       2.7415  -0.4601  0.7598
H       -1.2691  0.9382  -1.8694
H       -2.7137  1.5519  -0.3266
H       -3.8964  0.1939  -1.0006
H       -3.6449  -0.4624  1.7143
H       -2.9000  -1.3413  0.4530
H       -1.1931  0.8138  1.9483
H       -1.1954  -0.7156  2.1425
H       1.5374  -0.8367  -1.6043
H       1.1212  1.0971  -1.8910
H       3.5491  0.1488  -1.0735
H       2.7805  1.5643  -0.0507
H       2.6816  -1.5941  0.9187
H       3.7243  -0.1974  1.2164
H       1.5065  -0.6214  2.3450
H       1.4688  0.7773  1.8320
H       -1.3594  -0.8121  -1.6039
