27

Co      0.0000  0.0000  0.0000
Cl      0.0173  -2.1969  -0.1200
Cl      0.0677  2.4005  0.3379
N       -1.6224  0.0794  -1.3773
N       -1.4152  -0.0419  1.5498
N       1.4621  0.2151  -1.3023
N       1.5719  -0.1162  1.3849
C       -2.9232  0.3259  -0.6531
C       -2.7813  -0.3479  0.6431
C       2.8042  0.4076  -0.5959
C       2.7693  -0.4058  0.7379
H       -1.5132  1.0604  -1.7602
H       -3.0990  1.2977  -0.0826
H       -3.5556  0.0145  -1.5151
H       -3.8295  -0.3067  1.0950
H       -3.0908  -1.3306  0.0988
H       -1.5477  0.8940  1.9270
H       -1.4192  -1.0912  1.8668
H       1.8158  -0.7711  -1.5813
H       0.9977  0.6609  -2.2107
H       3.5156  0.3396  -1.4748
H       2.8151  1.4393  -0.2323
H       2.5249  -1.4123  0.2981
H       3.5392  -0.2539  1.4973
H       1.2830  -0.8659  1.9993
H       1.6477  0.5301  2.2468
H       -1.0496  -0.6717  -2.1384
