27

Co      0.0000  0.0000  0.0000
Cl      0.1193  -2.1711  -0.2625
Cl      0.0594  2.3501  0.1477
N       -1.4544  0.1034  -1.2766
N       -1.3570  -0.1324  1.2629
N       1.6271  0.2285  -1.3939
N       1.4455  -0.1582  1.1780
C       -2.7040  0.4136  -0.6784
C       -2.8266  -0.3713  0.4695
C       2.7644  0.4296  -0.6447
C       2.8065  -0.5712  0.5003
H       -1.4247  0.9047  -1.8960
H       -2.8736  1.5793  -1.0060
H       -3.7626  0.2299  -1.0696
H       -3.5450  0.0247  1.1934
H       -2.6623  -1.4071  0.1686
H       -2.0102  0.7678  1.6552
H       -1.2927  -0.8094  2.0211
H       1.7558  -0.4991  -2.1096
H       1.6262  0.8920  -2.2009
H       3.2439  0.0008  -1.6713
H       2.8233  1.4886  -0.4736
H       2.7601  -1.6657  0.5427
H       3.5608  0.1961  1.0184
H       1.3202  -0.6554  2.1275
H       1.8185  0.7783  1.5329
H       -1.5542  -0.7507  -1.7948
