27

Co      0.0000  0.0000  0.0000
Cl      -0.0286  -2.2260  -0.2528
Cl      -0.0520  2.3372  0.1312
N       -1.3075  0.2852  -1.3456
N       -1.4685  -0.0751  1.4208
N       1.4345  0.2347  -1.3611
N       1.4639  -0.2043  1.2870
C       -2.7034  0.4639  -0.6429
C       -2.8031  -0.4917  0.6959
C       2.6785  0.2757  -0.7328
C       2.8143  -0.3141  0.7713
H       -0.7737  1.0004  -1.9238
H       -2.9963  1.5258  -0.4866
H       -3.7506  -0.0368  -0.8943
H       -3.5902  -0.6336  1.5688
H       -2.6412  -1.5459  0.3870
H       -1.6982  0.9683  1.6056
H       -1.2270  -0.8184  2.0471
H       1.6451  -0.5789  -1.9154
H       1.4953  1.0466  -1.9856
H       3.4022  0.4415  -1.6865
H       3.0412  1.2659  -0.1828
H       2.1967  -1.3465  0.3092
H       3.6597  0.0390  1.3179
H       1.1637  -0.8591  2.0008
H       1.2996  0.6321  1.8637
H       -1.2534  -0.4710  -2.0363
