27

Co      0.0000  0.0000  0.0000
Cl      0.0879  -2.3056  -0.2700
Cl      0.0329  2.2998  0.1294
N       -1.4806  0.2447  -1.4794
N       -1.4939  -0.0771  1.2936
N       1.4241  0.1543  -1.3089
N       1.5304  -0.2446  1.3408
C       -2.6027  0.5363  -0.5802
C       -2.8081  -0.3885  0.5954
C       2.7407  0.4803  -0.6048
C       2.7387  -0.3852  0.6282
H       -1.4295  1.1147  -1.9979
H       -2.4342  1.5329  -0.0914
H       -3.4288  -0.0262  -1.0681
H       -3.3500  -0.7217  1.8634
H       -2.6704  -1.4736  0.4478
H       -1.3622  1.0099  1.4210
H       -0.7585  -0.7370  1.8675
H       1.4251  -0.7800  -1.6912
H       0.8865  0.8038  -1.9373
H       3.4785  0.3626  -1.4375
H       2.9405  1.5934  -0.7129
H       2.6502  -1.4809  0.5810
H       3.6251  -0.1650  1.2091
H       1.3544  -0.6249  2.3975
H       1.7351  0.8628  1.4618
H       -1.0289  -0.5841  -2.0741
