27

Co      0.0000  0.0000  0.0000
Cl      0.0030  -2.2904  -0.3027
Cl      0.0558  2.2563  0.0814
N       -1.4225  0.0527  -1.4618
N       -1.3799  -0.2304  1.3092
N       1.3723  0.2281  -1.4722
N       1.6228  -0.3407  1.3581
C       -2.8707  0.2874  -0.6700
C       -2.7012  -0.4497  0.4913
C       2.9066  0.3874  -0.6746
C       2.9104  -0.4947  0.6594
H       -1.4779  1.0216  -1.8889
H       -3.0528  1.3294  -0.4810
H       -3.3623  -0.2068  -1.6561
H       -3.2187  0.0023  1.4452
H       -2.5282  -1.5563  0.5056
H       -1.0138  0.7010  1.7353
H       -1.6265  -1.0318  1.9899
H       1.8651  -0.7818  -1.7076
H       1.3856  0.7872  -2.3703
H       3.7924  -0.1981  -1.1181
H       2.6573  1.4595  -0.5370
H       3.3134  -1.4816  0.1906
H       3.6975  -0.5065  1.4882
H       1.1779  -0.9255  2.1211
H       1.3433  0.3900  2.1221
H       -1.4453  -0.8740  -1.8493
