27

Co      0.0000  0.0000  0.0000
Cl      0.0087  -2.1903  -0.1707
Cl      -0.0050  2.4119  0.2102
N       -1.4350  0.2885  -1.3995
N       -1.4305  -0.1394  1.3711
N       1.3218  0.2078  -1.2075
N       1.3727  -0.0794  1.3461
C       -2.7257  0.5590  -0.7003
C       -2.7365  -0.2951  0.5564
C       2.7354  0.5710  -0.7110
C       2.8256  -0.3605  0.6100
H       -1.6217  1.3855  -1.7221
H       -2.8694  1.4991  -0.0330
H       -3.7098  0.3366  -1.1433
H       -3.5391  -0.1224  1.2764
H       -3.0054  -1.3791  0.5536
H       -1.7862  0.4777  2.2670
H       -0.5103  -0.8829  1.7999
H       1.6789  -0.6830  -1.6317
H       1.2398  0.6536  -2.2275
H       3.4295  -0.0156  -1.3993
H       2.8029  1.7142  -0.9506
H       2.6000  -1.4806  0.6152
H       3.1831  0.1430  1.7431
H       1.3115  -0.8565  2.0046
H       1.2285  0.6506  2.0876
H       -1.8785  -0.6185  -1.7987
