27

Co      0.0000  0.0000  0.0000
Cl      0.0248  -2.3463  -0.3031
Cl      -0.0167  2.3582  0.1668
N       -1.5844  0.2315  -1.2574
N       -1.4610  -0.1152  1.3425
N       1.4545  0.1438  -1.4028
N       1.5119  -0.2587  1.3772
C       -2.7006  0.3505  -0.7465
C       -2.6819  -0.2724  0.5872
C       2.8092  0.4073  -0.6576
C       2.7335  -0.3359  0.7480
H       -1.1909  1.1059  -1.6647
H       -2.8909  1.4580  -0.8544
H       -3.4585  -0.0275  -1.4232
H       -3.6393  -0.1012  1.1042
H       -3.1772  -1.4044  0.7894
H       -1.0247  0.6386  2.0675
H       -0.8800  -1.0771  1.6065
H       1.1940  -0.9279  -1.6040
H       1.4129  0.5498  -2.4823
H       3.5798  0.5031  -1.5357
H       2.9237  1.5097  -0.6551
H       2.7358  -1.3373  0.3011
H       3.7101  0.0916  1.1256
H       1.0168  -0.8978  2.0419
H       1.3804  0.5400  1.9981
H       -1.6552  -0.9129  -1.2677
