27

Co      0.0000  0.0000  0.0000
Cl      0.0110  -2.3317  -0.1756
Cl      -0.0651  2.4052  0.1948
N       -1.4535  0.2627  -1.3130
N       -1.5086  -0.0917  1.3541
N       1.4629  0.2848  -1.3480
N       1.4465  -0.1396  1.4312
C       -2.7961  0.4348  -0.7731
C       -2.9512  -0.2094  0.6016
C       2.6928  0.4526  -0.6902
C       2.6851  -0.3659  0.5752
H       -0.9944  1.0110  -1.8794
H       -3.0757  1.4581  -0.4529
H       -3.7142  0.5219  -1.4510
H       -3.6372  0.3768  1.2896
H       -2.6310  -1.2469  0.3079
H       -1.3905  0.6154  2.1395
H       -1.0134  -0.8292  1.9192
H       1.2413  -0.4120  -2.1259
H       0.3788  1.1878  -1.5505
H       3.4961  0.6350  -1.5595
H       2.4980  1.5465  -0.5988
H       2.6477  -1.4298  0.3404
H       3.5217  -0.3649  1.3190
H       1.6761  -1.1690  1.8558
H       1.7691  0.8837  1.6133
H       -1.5484  -0.4348  -2.1115
