27

Co      0.0000  0.0000  0.0000
Cl      0.0657  -2.2935  -0.2408
Cl      0.0055  2.3890  0.2335
N       -1.3477  0.0687  -1.3684
N       -1.5316  -0.0640  1.3090
N       1.4068  0.2071  -1.3625
N       1.7179  -0.1131  1.3808
C       -2.7303  0.4105  -0.7284
C       -2.8583  -0.3480  0.5820
C       2.8434  0.4261  -0.6875
C       2.7131  -0.4515  0.5789
H       -1.0846  1.0490  -1.7094
H       -2.8649  1.4286  -0.3630
H       -3.4460  0.3044  -1.5996
H       -3.4176  0.1548  1.4563
H       -2.6985  -1.5052  0.8690
H       -1.6944  0.5923  2.1546
H       -0.9078  -0.6397  2.0251
H       1.6269  -0.6331  -1.9141
H       1.8632  0.8094  -2.3548
H       3.6925  -0.2426  -1.1274
H       2.4130  1.4601  -0.3417
H       3.1022  -1.4229  0.0575
H       3.4844  -0.3446  1.3702
H       1.1014  -0.9308  1.8145
H       2.0183  0.7164  1.9057
H       -1.4804  -0.8615  -1.7284
