27

Co      0.0000  0.0000  0.0000
Cl      0.0364  -2.3777  -0.2987
Cl      -0.0099  2.2090  0.1443
N       -1.5388  -0.0151  -1.4400
N       -1.6237  -0.2332  1.2256
N       1.4780  -0.0023  -1.5460
N       1.5608  -0.2132  1.3715
C       -2.9051  0.5022  -0.7817
C       -2.7442  -0.6238  0.6177
C       2.8364  0.3602  -0.7629
C       2.8766  -0.5368  0.4841
H       -0.8724  0.8205  -1.8410
H       -3.3060  1.5463  -0.5439
H       -3.6855  -0.1099  -1.3571
H       -3.4781  0.3676  1.0425
H       -2.5723  -1.5903  0.0259
H       -1.4881  0.8788  1.3185
H       -1.4178  -1.0211  1.8111
H       1.2612  -0.6707  -2.4302
H       1.4754  0.7902  -2.1897
H       3.7203  0.3079  -1.4068
H       2.7197  1.3732  -0.2816
H       2.6733  -1.7039  0.8327
H       3.6782  -0.3859  1.2130
H       0.9394  -0.9000  1.9582
H       1.9658  0.5522  1.9988
H       -1.4097  -0.8350  -2.0238
