27

Co      0.0000  0.0000  0.0000
Cl      -0.0925  -2.1842  -0.2151
Cl      -0.1089  2.2991  0.1661
N       -1.5980  0.2091  -1.4601
N       -1.6275  -0.2538  1.4145
N       1.3997  0.0711  -1.4795
N       1.3573  -0.0527  1.2910
C       -2.8762  0.4038  -0.5614
C       -2.8502  -0.4596  0.5806
C       2.7813  0.4633  -0.5051
C       2.5829  -0.4513  0.4780
H       -1.5394  0.7208  -2.4021
H       -2.6255  1.4615  -0.3552
H       -3.3665  0.2178  -1.6592
H       -3.7268  -0.3122  1.2276
H       -3.3305  -1.4520  0.1984
H       -1.4144  0.7304  1.7299
H       -1.0285  -1.0656  1.8444
H       1.8254  -0.7059  -2.1146
H       1.3837  0.9264  -2.0385
H       3.2423  -0.3259  -1.3837
H       2.9209  1.4532  -0.0907
H       2.2893  -1.5175  0.3035
H       3.5294  -0.5637  1.1339
H       1.5546  -0.8083  2.0057
H       1.4023  0.7872  1.8504
H       -1.7091  -0.7058  -1.8802
