27

Co      0.0000  0.0000  0.0000
Cl      0.0868  -2.2996  -0.1036
Cl      0.1394  2.3660  0.2838
N       -1.3441  0.2493  -1.0774
N       -1.2919  0.0276  1.4158
N       1.6261  0.2593  -1.3238
N       1.5133  -0.0588  1.2726
C       -2.6244  0.4390  -0.6388
C       -2.7011  -0.4470  0.6764
C       2.8713  0.6299  -0.5976
C       2.8767  -0.4645  0.8284
H       -1.3735  1.0108  -1.7604
H       -2.4973  1.5396  -0.5870
H       -3.5930  0.4898  -1.2174
H       -3.7415  -0.2510  1.0732
H       -3.2136  -1.5142  0.5392
H       -1.6273  1.0005  1.7249
H       -1.2442  -0.8133  1.9881
H       1.2694  -0.4704  -2.0789
H       0.8332  1.0279  -1.8038
H       3.8999  0.5817  -1.0717
H       2.8174  1.7048  -0.4172
H       2.7697  -1.5328  0.6319
H       3.7841  0.0680  1.2538
H       1.2916  -0.9768  1.7211
H       1.7171  0.5747  2.1437
H       -1.6364  -0.4776  -1.8035
