27

Co      0.0000  0.0000  0.0000
Cl      -0.0413  -2.3884  -0.1728
Cl      -0.1044  2.2020  0.2052
N       -1.4264  0.2494  -1.3109
N       -1.3887  -0.1195  1.4617
N       1.5878  0.2008  -1.4153
N       1.5101  -0.1784  1.3340
C       -2.6338  0.3465  -0.5417
C       -2.7457  -0.3318  0.6620
C       2.6384  0.3439  -0.5577
C       2.6065  -0.3411  0.6868
H       -1.2452  1.0534  -1.8639
H       -2.5251  1.4005  -0.2256
H       -3.4652  0.7625  -1.4548
H       -4.0200  -0.4548  0.8997
H       -2.7771  -1.4411  0.6661
H       -1.6434  0.5474  2.2958
H       -1.6153  -0.8495  2.2401
H       1.4848  -0.6055  -2.0177
H       1.3969  1.0346  -1.9683
H       3.3862  0.3357  -1.3856
H       2.3330  1.3451  -0.0124
H       2.9293  -1.4990  1.0456
H       3.4302  -0.2595  1.4411
H       0.9498  -0.8558  1.9402
H       2.0040  0.5301  2.0390
H       -1.8987  -0.7842  -1.4733
