27

Co      0.0000  0.0000  0.0000
Cl      0.0610  -2.3573  -0.1353
Cl      0.0362  2.1135  0.2245
N       -1.5506  0.0567  -1.3211
N       -1.4403  -0.2417  1.2817
N       1.4234  0.1649  -1.3894
N       1.4261  -0.2206  1.5043
C       -2.8589  0.4315  -0.6323
C       -2.7446  -0.3265  0.5846
C       2.6759  0.3145  -0.5848
C       2.6812  -0.4426  0.5539
H       -1.1712  0.8481  -1.8719
H       -2.8024  1.3512  0.2384
H       -3.6289  0.1435  -1.3065
H       -3.5266  -0.0794  1.2907
H       -2.8588  -1.4249  0.6120
H       -1.5407  0.5625  1.8593
H       -1.3269  -1.1691  1.7211
H       1.9756  -0.4711  -2.2541
H       1.5616  1.0748  -1.9224
H       3.6280  0.5121  -1.2670
H       2.9741  1.3698  -0.4094
H       3.1896  -1.4750  0.3680
H       3.5590  -0.1308  1.1071
H       1.2902  -0.8523  2.2882
H       1.7950  0.7101  1.8710
H       -1.4932  -0.6725  -2.0612
