27

Co      0.0000  0.0000  0.0000
Cl      0.0146  -2.3248  -0.2562
Cl      -0.0910  2.3004  0.2421
N       -1.4783  0.0921  -1.3449
N       -1.4213  -0.1337  1.2358
N       1.5967  0.0240  -1.4565
N       1.4431  -0.1379  1.1685
C       -2.9102  0.3706  -0.5852
C       -2.7757  -0.3476  0.5846
C       2.7553  0.3497  -0.5699
C       2.8287  -0.5724  0.5098
H       -0.8974  0.4992  -2.2802
H       -2.7267  1.4057  -0.2963
H       -3.3012  -0.5265  -1.4874
H       -3.5439  0.3027  1.1530
H       -2.8582  -1.3772  0.3831
H       -1.5983  0.8587  1.5044
H       -1.2435  -0.9623  1.7651
H       1.5224  -0.8864  -1.8813
H       1.2687  0.7417  -2.0916
H       3.5369  0.2184  -1.3150
H       2.2660  1.4402  -0.4245
H       2.8102  -1.7563  0.9199
H       3.6480  -0.3298  1.1902
H       1.5444  -1.0610  1.6892
H       1.2668  0.6461  1.8429
H       -0.9879  -0.9060  -1.6844
