27

Co      0.0000  0.0000  0.0000
Cl      -0.1267  -2.2453  -0.1326
Cl      -0.0255  2.3171  0.2649
N       -1.5339  0.2244  -1.3708
N       -1.5138  -0.0825  1.2596
N       1.2790  0.2624  -1.2011
N       1.3919  -0.0429  1.3137
C       -2.7731  0.3887  -0.4977
C       -2.8366  -0.5445  0.6239
C       2.8060  0.3903  -0.5471
C       2.8714  -0.3904  0.7316
H       -1.8492  0.9388  -2.1894
H       -2.6080  1.5667  -0.8531
H       -3.5896  0.1241  -1.1546
H       -3.4740  -0.3314  1.5403
H       -2.7095  -1.6506  0.5802
H       -1.6616  0.7521  1.8073
H       -1.9127  -0.9950  1.8796
H       1.6208  -0.4409  -1.9704
H       1.1684  0.7727  -2.1666
H       3.5040  0.3365  -1.4397
H       3.1503  1.4592  -0.4565
H       2.7785  -1.4092  0.3479
H       3.9853  -0.2555  1.0670
H       1.3953  -0.9614  1.8069
H       1.1867  0.7819  1.9222
H       -1.9354  -0.6776  -1.7736
