27

Co      0.0000  0.0000  0.0000
Cl      -0.0111  -2.2616  -0.2306
Cl      -0.0547  2.3147  0.1903
N       -1.6043  0.2430  -1.1973
N       -1.5933  -0.0893  1.3985
N       1.3489  0.1512  -1.3302
N       1.5999  -0.1839  1.6436
C       -2.8111  0.5148  -0.6633
C       -2.7459  -0.2795  0.6475
C       2.7712  0.5082  -0.5766
C       2.7054  -0.2722  0.6327
H       -1.3410  0.8400  -2.0076
H       -2.8280  1.5056  -0.1528
H       -3.6600  0.1116  -1.2135
H       -3.5477  0.0974  1.2609
H       -2.9130  -1.4133  0.7956
H       -1.2774  0.9417  1.6491
H       -1.3249  -0.7561  2.0961
H       1.2481  -0.6915  -1.9204
H       1.5799  0.9744  -1.9815
H       3.9879  0.5549  -0.8490
H       2.9143  1.5197  -0.1906
H       3.1926  -1.2389  0.0732
H       3.5928  -0.3787  1.3454
H       1.1495  -1.0248  2.0690
H       1.5098  0.9733  1.6669
H       -1.3531  -0.5154  -1.9064
