27

Co      0.0000  0.0000  0.0000
Cl      0.0636  -2.4033  -0.3254
Cl      0.0067  2.2984  0.1584
N       -1.4169  0.2194  -1.5383
N       -1.3269  -0.1128  1.3798
N       1.4619  0.1209  -1.3192
N       1.4806  -0.0764  1.2712
C       -2.7958  0.4648  -0.8043
C       -2.8143  -0.3561  0.5696
C       2.8035  0.4361  -0.7862
C       2.8524  -0.3887  0.6396
H       -1.2234  0.6106  -2.6063
H       -2.9926  1.5335  -0.6722
H       -3.9981  0.4770  -1.0914
H       -3.5914  0.5584  1.0117
H       -2.8904  -1.4372  0.5749
H       -2.0251  0.7575  1.8311
H       -0.9204  -0.7546  2.0806
H       1.3192  -0.5751  -2.0999
H       1.4034  1.0758  -1.7679
H       3.4711  -0.1206  -1.4992
H       2.6505  1.4693  -0.4021
H       2.8594  -1.4081  0.2016
H       3.8734  0.1913  0.8721
H       1.8442  -1.1315  1.7231
H       1.3821  0.7317  1.8658
H       -1.3737  -0.6701  -2.0483
