27

Co      0.0000  0.0000  0.0000
Cl      -0.1409  -2.3728  -0.1344
Cl      -0.0797  2.2213  0.2669
N       -1.7425  0.0586  -1.2481
N       -1.5828  -0.1840  1.4665
N       1.4479  0.2221  -1.2146
N       1.5487  -0.2199  1.4280
C       -2.8749  0.3914  -0.5716
C       -2.9002  -0.5718  0.6260
C       2.6252  0.4257  -0.5385
C       2.6858  -0.5741  0.6717
H       -1.6118  0.7475  -1.9609
H       -3.0514  1.5297  -0.7713
H       -3.5206  0.2237  -1.5097
H       -3.7846  -0.5213  1.2761
H       -2.6135  -1.7041  0.6788
H       -1.4911  0.8832  1.6249
H       -1.3289  -1.0129  1.9840
H       1.3515  -0.5982  -1.8528
H       1.4169  0.8069  -2.0900
H       3.4466  0.2263  -1.2138
H       3.5637  1.3859  0.0081
H       2.6534  -1.7343  1.0874
H       3.5776  0.0315  1.1006
H       1.2148  -0.8100  2.1849
H       1.9376  0.7665  1.7056
H       -1.5494  -0.8215  -1.7284
