27

Co      0.0000  0.0000  0.0000
Cl      0.0238  -2.1911  -0.1847
Cl      0.0222  2.3365  0.1708
N       -1.4724  0.4250  -1.3825
N       -1.3414  -0.0515  1.3804
N       1.5575  0.1436  -1.3527
N       1.5038  -0.1297  1.3857
C       -2.7707  0.5936  -0.7118
C       -2.7031  -0.4780  0.6807
C       3.0536  0.6707  -0.7316
C       2.6270  -0.2668  0.7007
H       -1.4432  1.5145  -1.6549
H       -2.7941  1.6456  -0.4811
H       -3.4876  -0.0238  -1.3392
H       -3.6173  0.5532  0.8807
H       -2.8435  -1.5238  0.4655
H       -1.5963  0.5260  2.3498
H       -1.4936  -0.8770  2.0378
H       1.5946  -0.7008  -1.8776
H       0.8684  0.9059  -1.8379
H       3.6708  0.2548  -1.5738
H       2.6446  1.7595  -0.6108
H       2.8990  -1.3067  0.4367
H       3.7975  -0.3204  1.0360
H       1.0336  -0.7367  2.1000
H       1.1849  0.7222  1.9246
H       -1.5020  -0.4590  -1.8768
