27

Co      0.0000  0.0000  0.0000
Cl      -0.0681  -2.4338  -0.1932
Cl      -0.1119  2.2394  0.1979
N       -1.4737  0.1049  -1.2910
N       -1.4014  -0.2229  1.3114
N       1.4724  0.1344  -1.3987
N       1.3411  -0.3083  1.4268
C       -2.8081  0.3491  -0.5661
C       -2.9565  -0.5748  0.8964
C       2.7724  0.2807  -0.5328
C       2.8032  -0.4788  0.6394
H       -1.4019  0.8264  -2.0027
H       -2.9316  1.4527  -0.5726
H       -3.4630  0.2156  -1.5004
H       -3.9302  -0.2154  1.3232
H       -3.0032  -1.6009  0.5631
H       -2.3034  0.5729  1.8626
H       -1.1987  -0.8250  2.1146
H       1.5888  -0.5850  -2.1196
H       1.3183  0.9255  -2.0112
H       3.4917  -0.4455  -1.1049
H       2.8850  1.2634  -0.0293
H       2.8811  -1.5557  0.5816
H       3.6252  -0.1397  1.2615
H       0.8089  -1.1554  1.8379
H       1.3161  0.6703  1.7430
H       -1.4542  -0.6437  -1.9991
