27

Co      0.0000  0.0000  0.0000
Cl      -0.0493  -2.2254  -0.2057
Cl      -0.0384  2.1973  0.2507
N       -1.4634  0.1629  -1.4865
N       -1.4838  -0.2203  1.2465
N       1.4672  -0.0312  -1.3497
N       1.5227  -0.2719  1.2419
C       -2.6965  0.3922  -0.7425
C       -2.6795  -0.5142  0.7000
C       2.7770  0.2882  -0.6223
C       2.8208  -0.3954  0.5458
H       -1.7184  0.8818  -2.2744
H       -3.3085  1.5523  -1.1431
H       -3.4771  -0.4798  -1.1923
H       -3.6494  -0.7854  1.3893
H       -3.0083  -1.6087  0.6626
H       -1.0890  0.5071  2.0353
H       -1.2973  -0.8402  2.0543
H       1.3455  -0.9415  -1.7902
H       1.4946  0.7818  -1.9763
H       3.6701  0.1778  -1.2189
H       3.0435  1.2322  0.1287
H       2.5315  -1.5131  0.6442
H       3.8960  0.0728  0.7606
H       1.4258  -0.9549  1.9567
H       1.3846  0.8925  1.2645
H       -1.2908  -0.8730  -1.7448
