27

Co      0.0000  0.0000  0.0000
Cl      -0.0147  -2.1848  -0.1385
Cl      -0.0035  2.3017  0.2893
N       -1.6609  0.2104  -1.3961
N       -1.7141  -0.2008  1.3882
N       1.4961  0.0946  -1.4662
N       1.3454  -0.1666  1.3913
C       -2.7735  0.3495  -0.5670
C       -2.7052  -0.5090  0.6873
C       2.7382  0.3950  -0.6807
C       2.6586  -0.4592  0.7371
H       -1.0455  0.7133  -2.1994
H       -2.1990  1.3842  -0.1253
H       -3.5501  0.0947  -1.2517
H       -3.3103  -0.1019  1.5538
H       -3.0156  -1.5220  0.3742
H       -1.8129  0.7604  1.7112
H       -1.4313  -0.5496  2.4562
H       1.7496  -0.9442  -1.6361
H       0.7828  0.9229  -1.8418
H       3.5782  0.0964  -1.2925
H       2.6187  1.4728  -0.5419
H       2.6728  -1.4564  0.2379
H       3.4767  0.0747  1.2629
H       1.2426  -1.0554  1.8783
H       1.1808  0.6551  1.9902
H       -1.3979  -0.7670  -1.7313
