27

Co      0.0000  0.0000  0.0000
Cl      -0.0185  -2.3145  -0.2010
Cl      0.0412  2.2416  0.2475
N       -1.4811  0.1700  -1.4470
N       -1.4697  -0.1261  1.3347
N       1.3949  0.1860  -1.3290
N       1.4175  -0.1334  1.4050
C       -2.7791  0.2020  -0.5457
C       -2.7618  -0.3809  0.8649
C       2.6264  0.3334  -0.4731
C       2.7614  -0.3858  0.7653
H       -1.4186  1.3184  -1.6425
H       -2.4697  1.3052  -0.5141
H       -3.4934  -0.1893  -1.2747
H       -3.6757  0.0727  1.2891
H       -2.5284  -1.3887  0.4080
H       -1.7127  0.5520  2.1552
H       -1.5429  -0.9110  2.0144
H       1.0345  -0.6671  -1.8769
H       1.4081  0.8368  -2.1584
H       3.6310  0.1451  -0.8975
H       2.4762  1.4773  -0.6432
H       2.6715  -1.4002  0.3393
H       3.6648  -0.1142  1.2984
H       1.1278  -0.7669  2.1672
H       1.6322  0.5922  2.1222
H       -1.9263  -0.6844  -1.8982
