27

Co      0.0000  0.0000  0.0000
Cl      0.0334  -2.3252  -0.2334
Cl      0.0126  2.3771  0.1629
N       -1.4490  0.0844  -1.3994
N       -1.3886  -0.2153  1.2958
N       1.6233  0.2267  -1.2947
N       1.6250  -0.2518  1.3141
C       -2.6766  0.4039  -0.5476
C       -2.5870  -0.2599  0.6695
C       2.7668  0.4452  -0.6365
C       2.7977  -0.4155  0.6722
H       -1.2301  0.8116  -2.0330
H       -2.6452  1.4173  -0.1213
H       -3.3556  -0.0292  -1.2822
H       -3.3719  -0.0753  1.4013
H       -2.4186  -1.3262  0.4981
H       -1.5463  0.8344  1.4710
H       -1.3442  -0.9507  1.9577
H       1.8885  -0.4834  -2.0290
H       1.4870  1.0478  -1.8578
H       3.3555  -0.0798  -1.4774
H       3.0088  1.4715  -0.3181
H       3.0681  -1.5059  0.6269
H       3.6034  -0.4864  1.4993
H       1.6269  -1.0780  1.9245
H       1.0938  0.4201  2.2068
H       -1.0810  -0.9858  -1.5891
