27

Co      0.0000  0.0000  0.0000
Cl      -0.0765  -2.2857  -0.2831
Cl      -0.0136  2.2808  0.1613
N       -1.4621  0.0819  -1.3590
N       -1.5735  -0.2064  1.3357
N       1.5230  0.1414  -1.5970
N       1.4671  -0.1633  1.3993
C       -2.7261  0.3511  -0.7084
C       -2.6574  -0.4573  0.5853
C       2.7854  0.3985  -0.6111
C       2.7787  -0.5442  0.5012
H       -0.7271  0.6753  -2.0284
H       -3.1207  1.3379  -0.2701
H       -3.5967  -0.3114  -1.1071
H       -3.5300  -0.1839  1.1709
H       -2.9638  -1.4940  0.4180
H       -1.9210  0.8261  1.5149
H       -1.1646  -0.7926  2.0865
H       1.5333  -0.9068  -1.7733
H       0.6657  0.8361  -2.0870
H       3.5354  0.1851  -1.3775
H       2.5158  1.4714  -0.4077
H       2.5950  -1.6645  0.6338
H       3.3908  0.3160  1.1543
H       1.6863  -0.9900  2.0579
H       1.3608  0.7614  1.8201
H       -1.4793  -0.5710  -2.2348
