27

Co      0.0000  0.0000  0.0000
Cl      0.0138  -2.2825  -0.1658
Cl      -0.0269  2.2962  0.2009
N       -1.3043  0.2866  -1.3510
N       -1.2443  -0.0640  1.2923
N       1.5599  0.2775  -1.5210
N       1.3772  -0.1714  1.2761
C       -2.7004  0.4617  -0.6806
C       -2.7157  -0.4291  0.5735
C       2.8205  0.4061  -0.6462
C       2.9310  -0.3220  0.6095
H       -1.6003  1.1197  -2.0224
H       -2.5692  1.4828  -0.2870
H       -3.3769  0.1979  -1.4999
H       -3.6278  -0.4875  1.2527
H       -3.2064  -1.4457  0.1902
H       -1.3000  0.6388  2.1071
H       -1.7385  -0.6951  2.2725
H       1.3132  -0.8728  -1.5779
H       1.3716  0.7135  -2.5065
H       3.6337  0.1589  -1.3058
H       3.3444  1.4282  -0.4045
H       2.8919  -1.3282  0.1094
H       3.7332  -0.3270  1.4074
H       1.4046  -1.2897  1.5262
H       1.5747  0.7774  1.6275
H       -1.2003  -0.4792  -2.0443
