27

Co      0.0000  0.0000  0.0000
Cl      0.0900  -2.1508  -0.2378
Cl      0.0524  2.3552  0.2014
N       -1.3548  0.2421  -1.4034
N       -1.4162  -0.1605  1.4835
N       1.5715  0.1399  -1.4400
N       1.4803  -0.0359  1.3965
C       -2.7602  0.5128  -0.6238
C       -2.8554  -0.2194  0.5242
C       2.8257  0.5914  -0.6628
C       2.8956  -0.3495  0.6375
H       -1.0205  0.9865  -1.9995
H       -3.2238  1.5302  -0.3729
H       -3.3188  0.0363  -1.5389
H       -3.4628  0.2309  1.3746
H       -2.4612  -1.3770  0.8100
H       -1.5773  0.7512  1.9031
H       -1.2381  -0.8957  2.1232
H       1.6002  -0.6632  -2.0442
H       1.2087  0.6860  -2.2618
H       3.6287  0.1396  -1.2633
H       3.1456  1.6830  -0.7325
H       2.7841  -1.3791  0.2829
H       3.8919  -0.1991  1.1123
H       0.6499  -0.9117  1.7022
H       1.8738  0.7224  2.0318
H       -1.6429  -0.6537  -1.8265
