27

Co      0.0000  0.0000  0.0000
Cl      -0.0606  -2.2898  -0.2720
Cl      0.0451  2.2219  0.1048
N       -1.5171  0.1204  -1.3612
N       -1.5416  -0.2709  1.2107
N       1.3714  0.1995  -1.4409
N       1.4466  -0.2132  1.3456
C       -2.7564  0.3559  -0.6032
C       -2.6798  -0.4243  0.4612
C       2.6536  0.4174  -0.7434
C       2.6929  -0.4032  0.7232
H       -1.5485  0.6932  -2.2550
H       -2.7739  1.4626  -0.6221
H       -3.4240  0.1584  -1.4775
H       -3.2449  -0.5409  1.5956
H       -2.6180  -1.5576  0.5830
H       -1.2420  0.4214  2.0335
H       -1.6441  -1.2259  1.6940
H       1.0189  -0.9223  -1.5541
H       0.8844  0.7782  -2.1681
H       3.3728  0.1369  -1.5181
H       3.0752  1.3897  -0.1779
H       2.5399  -1.4190  0.3474
H       3.4363  0.0679  1.3840
H       1.5526  -1.1197  1.8623
H       1.8765  0.7109  1.7211
H       -1.1418  -0.7801  -1.8348
