27

Co      0.0000  0.0000  0.0000
Cl      -0.0207  -2.2690  -0.2354
Cl      -0.0304  2.3757  0.1985
N       -1.4437  0.1450  -1.4808
N       -1.5369  -0.1789  1.2741
N       1.3256  0.2127  -1.3223
N       1.5260  -0.1981  1.3315
C       -2.8859  0.5175  -0.6500
C       -2.9044  -0.3981  0.7137
C       2.5478  0.4314  -0.6938
C       2.8846  -0.3769  0.6880
H       -1.5419  1.2532  -1.7932
H       -3.0303  1.6037  -0.6270
H       -3.5853  -0.3748  -1.2021
H       -3.6756  0.3119  1.2317
H       -3.3605  -1.4136  0.4101
H       -1.7109  0.6959  1.7860
H       -1.7034  -0.5831  2.4172
H       1.6438  -0.7554  -1.6237
H       1.5541  0.9352  -2.1017
H       3.5666  0.3591  -1.1633
H       3.0523  1.4585  -0.3713
H       2.5677  -1.4106  0.3348
H       3.9317  0.1299  0.9249
H       1.2579  -0.7565  2.1653
H       1.5502  0.7626  1.6809
H       -1.4211  -0.5208  -2.3251
