27

Co      0.0000  0.0000  0.0000
Cl      0.0281  -2.2920  -0.2048
Cl      0.0018  2.3114  0.2500
N       -1.3835  0.0769  -1.4104
N       -1.4317  -0.1904  1.2914
N       1.4038  0.2379  -1.3225
N       1.3965  -0.1097  1.3029
C       -2.7493  0.5371  -0.5584
C       -2.7661  -0.2594  0.7100
C       2.7758  0.4552  -0.5067
C       2.6591  -0.3901  0.6463
H       -1.5466  0.8701  -2.0980
H       -3.3407  1.6015  -0.4311
H       -4.0222  0.3887  -0.6810
H       -3.7258  0.1174  1.1312
H       -2.3259  -1.3625  0.7010
H       -1.2219  0.6150  1.9284
H       -1.0914  -0.8850  1.9584
H       1.3804  -0.6948  -1.7065
H       1.3976  1.1650  -1.7975
H       3.3307  -0.1749  -1.3259
H       2.8388  1.5436  -0.4536
H       2.7197  -1.5277  0.9080
H       3.3808  0.4067  1.1911
H       1.3584  -0.4625  2.4639
H       1.8352  0.7312  1.8183
H       -1.7031  -0.8567  -1.7827
