27

Co      0.0000  0.0000  0.0000
Cl      0.0795  -2.2335  -0.2222
Cl      0.0631  2.4129  0.2381
N       -1.5107  0.1873  -1.2127
N       -1.4001  -0.1012  1.4188
N       1.3404  0.0673  -1.1505
N       1.6069  -0.0857  1.3454
C       -2.7194  0.4446  -0.5795
C       -2.6250  -0.3188  0.6247
C       2.8401  0.4203  -0.6714
C       2.8612  -0.3124  0.7793
H       -1.0342  1.2326  -1.4246
H       -2.8125  1.5103  -0.4292
H       -3.3401  0.1733  -1.4909
H       -3.8464  -0.3258  0.8671
H       -2.9306  -1.4166  0.5947
H       -1.6892  0.6770  2.0605
H       -1.5262  -0.6986  2.3217
H       1.7092  -0.9132  -1.4453
H       0.9338  0.6923  -1.8761
H       3.8045  0.4889  -1.2685
H       3.0558  1.3111  0.3683
H       3.0139  -1.3047  0.3454
H       3.6604  -0.0581  1.4631
H       1.2660  -0.8255  1.9536
H       1.4006  0.6479  2.0881
H       -1.7255  -0.6196  -1.7906
