27

Co      0.0000  0.0000  0.0000
Cl      0.0073  -2.2000  -0.2130
Cl      0.0447  2.3179  0.1807
N       -1.2548  0.2507  -1.4124
N       -1.3803  -0.2704  1.4663
N       1.7003  0.1786  -1.3790
N       1.6609  -0.1177  1.4527
C       -2.7026  0.5269  -0.6679
C       -2.5380  -0.3016  0.5670
C       2.7334  0.4955  -0.7274
C       2.7930  -0.2749  0.5520
H       -1.1264  0.9186  -2.1483
H       -2.9236  1.6226  -0.6380
H       -3.5369  0.5041  -1.4083
H       -3.4500  -0.2785  1.2201
H       -3.0495  -1.4171  0.7484
H       -1.5690  0.9047  1.4098
H       -1.1456  -1.2298  1.8046
H       1.4443  -0.5708  -2.0810
H       0.5137  0.9009  -1.7583
H       3.4642  -0.0539  -1.3757
H       2.8099  1.5009  -0.3335
H       3.1970  -1.4240  0.8652
H       3.7108  0.1925  0.9878
H       1.3573  -0.7605  2.1696
H       1.3037  0.7720  1.9447
H       -1.3912  -0.5620  -2.0261
