27

Co      0.0000  0.0000  0.0000
Cl      -0.0862  -2.2774  -0.1621
Cl      -0.1102  2.2357  0.2777
N       -1.5862  0.1050  -1.3002
N       -1.3918  -0.1716  1.3704
N       1.4186  0.2806  -1.2540
N       1.3795  -0.0453  1.2658
C       -2.8725  0.3196  -0.6419
C       -2.8282  -0.2876  0.6763
C       2.6713  0.2470  -0.5568
C       2.4652  -0.4395  0.4779
H       -0.7696  0.6827  -1.9656
H       -3.1961  1.4322  -0.7786
H       -3.7171  -0.0396  -1.2272
H       -3.8982  -0.2494  1.0942
H       -2.4403  -1.3183  0.2419
H       -1.4938  0.6934  1.8563
H       -1.5003  -1.1975  1.7709
H       1.7800  -0.7030  -1.5363
H       1.1798  0.9121  -1.9944
H       3.4193  0.3857  -1.4498
H       3.0919  1.2657  -0.1950
H       2.3922  -1.5794  0.7432
H       3.2740  -0.2607  1.1873
H       0.8950  -0.6063  2.0357
H       1.5939  0.8844  1.6241
H       -1.6103  -0.6128  -2.0577
