27

Co      0.0000  0.0000  0.0000
Cl      -0.0084  -2.1871  -0.2036
Cl      0.0377  2.3419  0.2812
N       -1.5431  0.1649  -1.3385
N       -1.4763  -0.1354  1.3834
N       1.5778  0.1735  -1.3942
N       1.5976  -0.0648  1.2544
C       -2.7709  0.3780  -0.7814
C       -2.6271  -0.2942  0.5944
C       2.9367  0.4618  -0.6395
C       2.8594  -0.4614  0.6623
H       -1.1730  0.8493  -2.0007
H       -2.5705  1.5263  -0.9464
H       -3.7552  0.1558  -1.2277
H       -3.4785  -0.1308  1.2468
H       -2.1175  -1.4972  0.9502
H       -1.1927  0.8360  1.7013
H       -1.3688  -0.8753  2.0520
H       2.1379  -0.6677  -1.8908
H       1.0156  0.8412  -2.0186
H       3.7997  0.2485  -1.2630
H       2.6959  1.5466  -0.5243
H       2.5529  -1.4508  0.1531
H       3.6463  0.2325  1.1456
H       1.4492  -0.6976  2.0536
H       1.1453  0.8116  1.7839
H       -1.2107  -0.8728  -1.5769
