27

Co      0.0000  0.0000  0.0000
Cl      -0.0556  -2.3423  -0.2282
Cl      -0.0657  2.3222  0.1903
N       -1.4276  0.0994  -1.4168
N       -1.5335  -0.2124  1.3957
N       1.5437  0.1678  -1.3944
N       1.5906  -0.1956  1.3845
C       -2.8091  0.4197  -0.8022
C       -2.8020  -0.4599  0.6927
C       2.7947  0.4008  -0.6787
C       2.4905  -0.4582  0.6255
H       -1.3835  0.8337  -2.0982
H       -3.3604  1.4249  -0.3738
H       -3.7864  0.3089  -1.3278
H       -3.6424  0.0484  1.2180
H       -2.8626  -1.5385  0.5813
H       -1.3117  0.8304  1.6227
H       -0.9355  -0.8733  1.9966
H       1.5544  -0.5291  -2.1959
H       1.0429  0.6421  -2.2607
H       3.8268  0.4460  -1.1879
H       2.8244  1.4916  -0.6298
H       2.9193  -1.3950  -0.1172
H       3.4779  -0.7809  1.3040
H       1.0507  -1.1612  1.6562
H       1.4620  0.7061  1.8130
H       -1.7308  -0.9136  -1.6704
