27

Co      0.0000  0.0000  0.0000
Cl      0.0198  -2.2704  -0.2940
Cl      -0.0302  2.3546  0.1787
N       -1.3894  0.1722  -1.5282
N       -1.2923  0.0140  1.3307
N       1.5891  0.2551  -1.4767
N       1.5040  -0.0724  1.3631
C       -2.8207  0.5856  -0.6045
C       -2.6653  -0.3403  0.7264
C       2.6165  0.6228  -0.6508
C       2.8409  -0.4640  0.7243
H       -1.1732  0.9692  -2.0917
H       -2.5284  1.7021  -0.6467
H       -3.2940  -0.1119  -1.5058
H       -3.6572  0.4133  0.9440
H       -2.5568  -1.3497  0.3171
H       -1.6902  0.9258  1.7433
H       -1.2095  -0.6418  2.0897
H       1.3244  -0.5664  -2.0875
H       1.4805  0.6989  -2.4986
H       3.2282  -0.0085  -1.3883
H       2.5603  1.5986  -0.0814
H       3.3362  -1.5233  0.5860
H       3.5625  -0.3363  1.5939
H       1.8241  -0.9076  2.0302
H       1.7308  0.8579  1.7542
H       -1.5624  -0.6683  -2.0465
