27

Co      0.0000  0.0000  0.0000
Cl      0.0033  -2.1896  -0.1907
Cl      -0.0364  2.3722  0.2172
N       -1.6529  0.3579  -1.3728
N       -1.5765  -0.0837  1.4064
N       1.3966  0.1221  -1.3298
N       1.3614  -0.1693  1.4712
C       -2.7495  0.4228  -0.6459
C       -2.6922  -0.3608  0.6660
C       2.6540  0.5289  -0.6888
C       2.7116  -0.3123  0.6172
H       -1.4920  0.9922  -2.1401
H       -2.5608  1.4398  -0.2372
H       -3.4346  0.1521  -1.4419
H       -3.6744  -0.2521  1.1654
H       -3.1143  -1.3618  0.2821
H       -1.0879  0.7913  1.9485
H       -1.4746  -0.7968  2.0977
H       1.3632  -0.8048  -1.7438
H       2.0020  1.3611  -1.6070
H       3.0978  -0.0428  -1.6912
H       2.9401  1.5944  -0.5772
H       2.9084  -1.4690  0.8762
H       3.6447  -0.0379  1.1214
H       1.2499  -0.8585  2.1804
H       1.2642  0.5593  2.2258
H       -1.3300  -0.6251  -1.7133
