27

Co      0.0000  0.0000  0.0000
Cl      -0.0117  -2.2875  -0.2476
Cl      0.0064  2.3152  0.1880
N       -1.5351  0.3085  -1.3688
N       -1.5970  -0.0312  1.3647
N       1.5057  0.1197  -1.4575
N       1.5206  -0.0808  1.4697
C       -2.8865  0.5141  -0.5667
C       -2.7987  -0.5175  0.6390
C       2.7244  0.4413  -0.5541
C       2.8804  -0.3211  0.7196
H       -1.2851  0.8662  -2.2030
H       -3.0907  1.5572  -0.3296
H       -3.5837  0.2114  -1.3683
H       -3.2815  -0.1842  1.7098
H       -3.0854  -1.5549  0.3943
H       -1.5298  0.9384  1.6982
H       -1.0750  -0.7055  1.9953
H       1.3349  -0.6784  -2.0872
H       0.8058  1.0449  -1.7273
H       3.9396  0.1654  -0.6982
H       2.6564  1.4747  -0.3104
H       3.4267  -1.3019  0.2150
H       3.8731  -0.3657  1.2857
H       1.0506  -0.6940  2.1717
H       1.9128  0.8870  1.8004
H       -1.5774  -0.6384  -1.7233
