27

Co      0.0000  0.0000  0.0000
Cl      -0.0422  -2.2174  -0.2931
Cl      0.0363  2.4318  0.2026
N       -1.4130  0.1652  -1.4944
N       -1.5953  -0.1064  1.2532
N       1.5694  0.2583  -1.4318
N       1.6519  -0.0273  1.3307
C       -2.6061  0.5678  -0.6833
C       -2.5802  -0.3437  0.6518
C       2.8883  0.4520  -0.7753
C       2.8344  -0.2082  0.6633
H       -1.1880  0.9051  -2.1212
H       -2.7761  1.5516  -0.0923
H       -3.5682  -0.1142  -0.9450
H       -3.7195  -0.3060  0.9981
H       -3.2059  -1.3821  0.4069
H       -1.7346  0.9287  1.4618
H       -1.6331  -0.7379  2.0733
H       1.7264  -0.7891  -1.6103
H       0.9828  0.6475  -2.3713
H       3.3631  0.2569  -1.8902
H       2.7313  1.4803  -0.3677
H       2.7783  -1.2318  0.3048
H       3.9120  0.2011  0.9129
H       1.2025  -0.8154  1.8447
H       1.2965  0.6803  2.1377
H       -1.1710  -0.9274  -1.6431
