27

Co      0.0000  0.0000  0.0000
Cl      -0.0576  -2.2820  -0.1866
Cl      -0.0014  2.4312  0.2627
N       -1.5099  0.2293  -1.4095
N       -1.4209  -0.0820  1.5772
N       1.4280  0.0307  -1.1656
N       1.5311  -0.0732  1.4384
C       -2.7507  0.3533  -0.5416
C       -2.8228  -0.4741  0.6253
C       2.9010  0.5262  -0.7124
C       2.6690  -0.4346  0.6983
H       -1.1726  1.1044  -1.8321
H       -3.0878  1.3543  -0.1888
H       -3.3763  0.0355  -1.4305
H       -3.5298  -0.2316  1.4390
H       -3.1010  -1.5464  0.5862
H       -2.2785  0.7532  2.0547
H       -1.1500  -0.9605  2.0193
H       1.6400  -0.6257  -2.0112
H       1.4221  0.8153  -1.8174
H       3.6143  0.0662  -1.4279
H       2.6246  1.5096  -0.0745
H       2.7665  -1.4373  0.2704
H       3.3308  -0.0820  1.5049
H       1.5518  -0.8880  2.0607
H       1.3868  0.5457  2.3863
H       -1.0309  -0.7409  -1.7957
