27

Co      0.0000  0.0000  0.0000
Cl      -0.0098  -2.1940  -0.2348
Cl      0.0463  2.2740  0.2296
N       -1.4239  0.0615  -1.3435
N       -1.4749  -0.1087  1.3415
N       1.3811  0.1563  -1.3918
N       1.4205  -0.2108  1.4372
C       -2.7156  0.3040  -0.7813
C       -2.7115  -0.4211  0.5862
C       2.9410  0.3741  -0.6708
C       2.8776  -0.3490  0.6291
H       -1.2342  0.7117  -2.0812
H       -2.9658  1.2807  -0.2004
H       -3.6065  0.4341  -1.5164
H       -3.3220  -0.1866  1.5065
H       -2.7642  -1.4290  0.2037
H       -1.8751  0.7855  1.7602
H       -1.3704  -0.8436  2.0125
H       0.8442  -0.5908  -2.1486
H       0.9384  0.7937  -2.1092
H       3.3406  -0.0515  -1.7975
H       2.5661  1.4128  -0.2742
H       2.5840  -1.4119  0.4157
H       3.8010  -0.0502  1.1239
H       1.5409  -0.9717  2.1356
H       1.7694  0.8075  1.6406
H       -1.5295  -0.8454  -1.7763
