27

Co      0.0000  0.0000  0.0000
Cl      0.0525  -2.2889  -0.1128
Cl      -0.0336  2.3175  0.2466
N       -1.4456  0.2156  -1.1545
N       -1.4990  -0.0822  1.4153
N       1.3791  0.2120  -1.2696
N       1.3235  -0.2689  1.3742
C       -2.8727  0.4295  -0.4797
C       -2.8893  -0.2634  0.7263
C       2.9521  0.4915  -0.5199
C       2.6555  -0.3078  0.8986
H       -1.3177  1.4164  -1.2802
H       -2.8627  1.4967  -0.2871
H       -3.7924  0.2111  -1.0150
H       -3.7420  0.2522  1.2259
H       -3.0015  -1.3881  0.8999
H       -1.3562  0.6904  2.0782
H       -0.7278  -0.9351  1.7667
H       1.2673  -0.6429  -1.7987
H       1.2477  1.0097  -1.8890
H       3.7184  0.1352  -1.2028
H       1.9941  1.5493  -0.1618
H       2.7228  -1.2551  0.0981
H       3.9099  -0.5212  1.1935
H       1.0529  -0.6121  2.4830
H       1.8356  0.4556  2.0761
H       -1.6255  -0.5771  -1.7511
