27

Co      0.0000  0.0000  0.0000
Cl      0.0278  -2.2107  -0.2309
Cl      -0.0417  2.3581  0.1330
N       -1.4637  0.0872  -1.3560
N       -1.4091  -0.1680  1.2417
N       1.4453  0.3091  -1.2683
N       1.4707  -0.2217  1.3503
C       -2.7392  0.5814  -0.5323
C       -2.7441  -0.3935  0.7166
C       2.6801  0.3889  -0.6511
C       2.6726  -0.4327  0.7073
H       -1.1813  0.7444  -2.1030
H       -2.9801  1.5609  0.0536
H       -3.2666  0.3416  -1.5580
H       -3.5935  0.6798  0.9791
H       -3.1460  -1.3631  0.2804
H       -1.5001  0.5382  2.0322
H       -1.3609  -0.6829  2.1842
H       1.5011  -0.5689  -1.7380
H       1.3327  1.0827  -1.9158
H       3.6434  0.2301  -1.1310
H       2.4630  1.4250  -0.1636
H       2.7856  -1.5090  0.6705
H       3.5076  0.6422  1.0011
H       1.6526  -1.2312  1.7826
H       1.7770  0.5966  1.8926
H       -1.6899  -0.7798  -1.8444
