27

Co      0.0000  0.0000  0.0000
Cl      -0.1133  -2.2639  -0.2507
Cl      -0.0920  2.2522  0.2254
N       -1.6550  0.2794  -1.3338
N       -1.4797  0.0209  1.2695
N       1.2524  0.1676  -1.3707
N       1.2756  -0.0736  1.3106
C       -2.9182  0.2984  -0.6561
C       -2.6231  -0.3426  0.4852
C       2.6993  0.2744  -0.7168
C       2.6923  -0.2241  0.6020
H       -1.0960  0.7245  -2.2408
H       -2.7666  1.3563  -0.4591
H       -3.6706  -0.0066  -1.3540
H       -3.7006  -0.1996  0.8472
H       -3.0047  -1.4001  0.3559
H       -1.7496  0.6714  2.0993
H       -1.3832  -1.0448  1.5775
H       0.9383  -0.8591  -1.6425
H       1.2185  1.0873  -1.8569
H       3.7542  0.0920  -1.0853
H       2.7163  1.3079  -0.3566
H       3.2088  -1.3056  0.5740
H       3.7452  0.0186  0.9639
H       0.9085  -0.8891  1.8199
H       1.1059  0.9140  1.6224
H       -1.6976  -0.4146  -2.1354
