27

Co      0.0000  0.0000  0.0000
Cl      0.0206  -2.2917  -0.2379
Cl      0.0452  2.2258  0.1640
N       -1.4664  0.0482  -1.3249
N       -1.5388  -0.1475  1.4834
N       1.5578  0.1145  -1.3091
N       1.5033  -0.2314  1.3215
C       -2.8266  0.4523  -0.6145
C       -2.7527  -0.3493  0.6167
C       2.7723  0.4269  -0.6968
C       2.7169  -0.3010  0.5781
H       -1.3614  0.9160  -1.8446
H       -2.6653  1.5095  -0.3583
H       -3.2623  0.1086  -1.7325
H       -3.8943  -0.1960  0.8829
H       -2.5218  -1.3678  0.1564
H       -1.3514  0.7369  1.9730
H       -1.3768  -0.7200  2.3318
H       1.8329  -0.5402  -2.1298
H       1.1525  1.1978  -1.5032
H       3.5126  0.2891  -1.5008
H       2.7368  1.4186  -0.1741
H       2.6844  -1.3129  0.1977
H       3.2276  0.1442  1.5274
H       0.9326  -1.0434  1.7852
H       1.7016  0.4546  2.0829
H       -1.3772  -0.8621  -1.7755
