27

Co      0.0000  0.0000  0.0000
Cl      0.0438  -2.2252  -0.1210
Cl      0.0276  2.3635  0.2369
N       -1.3368  0.2698  -1.2093
N       -1.4309  -0.0958  1.4198
N       1.4891  0.1949  -1.2075
N       1.6875  -0.0934  1.2774
C       -2.7281  0.4445  -0.7048
C       -2.8287  -0.2381  0.6201
C       2.8644  0.4319  -0.4961
C       2.8337  -0.2778  0.6440
H       -1.7631  1.2004  -1.8198
H       -2.9872  1.4146  -0.0684
H       -3.6912  0.7836  -1.4179
H       -3.9700  -0.1290  0.9213
H       -2.6358  -1.1983  -0.0890
H       -1.6263  0.6375  2.1206
H       -0.9135  -1.1289  1.6304
H       1.5835  -0.4235  -2.1385
H       1.4806  0.8543  -2.0341
H       3.5090  0.3645  -1.4629
H       3.0408  1.5168  -0.4245
H       3.4706  -1.2879  0.3430
H       3.7917  0.0882  1.0714
H       1.9042  -1.0218  1.8267
H       1.8761  0.6104  2.0417
H       -1.5220  -0.5843  -1.7316
