27

Co      0.0000  0.0000  0.0000
Cl      0.0467  -2.3192  -0.2489
Cl      0.0177  2.2846  0.2146
N       -1.3656  0.1572  -1.2868
N       -1.4853  -0.1468  1.3633
N       1.3538  0.0213  -1.3433
N       1.6612  -0.1868  1.2831
C       -2.8464  0.3442  -0.8099
C       -2.8025  -0.5461  0.7067
C       2.9381  0.2866  -0.7566
C       2.9038  -0.4041  0.7521
H       -1.1093  0.7765  -2.0623
H       -2.3932  1.4305  -0.6980
H       -3.5735  -0.1080  -1.4999
H       -3.6304  -0.5941  1.4601
H       -2.9304  -1.6015  0.4334
H       -1.4636  0.5709  2.1219
H       -1.4500  -0.9632  1.9945
H       1.1950  -0.8668  -1.8354
H       1.7787  0.9978  -1.9048
H       4.0012  -0.4779  -0.8621
H       2.7752  1.2980  -0.2608
H       2.6724  -1.4788  0.5279
H       4.0084  -0.1275  1.0199
H       1.7590  -1.1992  1.7154
H       1.4565  0.3740  2.3159
H       -1.4942  -0.7307  -1.7348
