27

Co      0.0000  0.0000  0.0000
Cl      0.0355  -2.2744  -0.2540
Cl      0.0655  2.2534  0.1395
N       -1.5150  0.1685  -1.4192
N       -1.4553  -0.1710  1.2955
N       1.4245  0.1999  -1.2462
N       1.4446  -0.1309  1.2375
C       -2.7314  0.3621  -0.7978
C       -2.7638  -0.5366  0.5683
C       2.7197  0.4164  -0.7671
C       2.7743  -0.4868  0.5655
H       -1.5299  0.7673  -2.2984
H       -2.8284  1.3394  -0.1958
H       -3.6632  0.3768  -1.4360
H       -3.1885  0.3350  1.4510
H       -2.4925  -1.6344  0.5865
H       -2.0137  0.7496  1.6814
H       -1.5160  -0.6691  2.2997
H       1.0464  -0.7008  -1.7275
H       1.4882  0.8089  -2.1221
H       3.9781  0.0764  -0.8020
H       2.7773  1.4821  -0.5626
H       3.1839  -1.5464  0.4004
H       3.4097  -0.0899  1.3985
H       1.5879  -1.4054  1.3743
H       1.8359  0.5195  2.0528
H       -1.7722  -0.5777  -2.1097
