27

Co      0.0000  0.0000  0.0000
Cl      0.0231  -2.3310  -0.2699
Cl      -0.0471  2.2073  0.1811
N       -1.5467  0.1265  -1.4498
N       -1.6329  -0.2449  1.4140
N       1.5204  0.0835  -1.3961
N       1.5180  -0.3363  1.2585
C       -2.7095  0.2730  -0.6041
C       -2.7601  -0.3258  0.5520
C       2.7167  0.2822  -0.6760
C       2.6938  -0.4826  0.8040
H       -1.4645  0.7189  -2.2989
H       -2.9980  1.3477  -0.5214
H       -3.5416  -0.0300  -1.2150
H       -3.5871  -0.1966  1.2476
H       -2.4512  -1.4198  0.5093
H       -1.0768  0.7289  1.7816
H       -1.1044  -0.6831  2.3059
H       1.5529  -0.8260  -1.8169
H       1.0247  0.8101  -1.9682
H       3.5443  0.4493  -1.5185
H       3.4367  1.4389  -0.9798
H       3.0168  -1.5320  0.5955
H       3.8268  -0.1048  1.0046
H       1.2526  -1.2217  1.6988
H       1.6376  0.7084  1.4403
H       -1.6414  -0.8379  -1.7855
