27

Co      0.0000  0.0000  0.0000
Cl      0.0842  -2.3369  -0.1636
Cl      0.0704  2.2629  0.2443
N       -1.4078  0.0714  -1.2993
N       -1.2521  -0.0961  1.3701
N       1.5350  -0.0009  -1.3682
N       1.5834  -0.3137  1.3285
C       -2.8238  0.3403  -0.6112
C       -2.5810  -0.4935  0.5338
C       2.8863  0.3735  -0.5879
C       2.8630  -0.4707  0.6995
H       -1.2894  0.5476  -2.2751
H       -2.6572  1.4724  -0.6895
H       -3.6097  0.3514  -1.4323
H       -3.5493  -0.5076  1.1096
H       -2.7369  -1.5315  0.2281
H       -1.7504  0.9458  1.5244
H       -0.8637  -0.9513  1.8114
H       1.1338  -0.8024  -2.0175
H       1.3314  0.9347  -1.7903
H       3.6708  0.4835  -1.4593
H       2.8575  1.4225  -0.2931
H       2.4602  -1.3413  -0.4276
H       3.6644  -0.0172  1.2501
H       1.0022  -1.1541  1.7628
H       1.4782  0.2855  2.2792
H       -1.3927  -0.8995  -1.6549
