27

Co      0.0000  0.0000  0.0000
Cl      -0.0874  -2.3718  -0.2256
Cl      -0.0382  2.3110  0.1498
N       -1.6069  0.1784  -1.4752
N       -1.4259  -0.2203  1.2162
N       1.3204  0.0938  -1.4471
N       1.3930  -0.3005  1.2957
C       -2.8110  0.2057  -0.6529
C       -2.8483  -0.4377  0.4937
C       2.6393  0.3043  -0.7220
C       2.7026  -0.4265  0.6579
H       -1.3781  1.0363  -1.9571
H       -2.7911  1.2182  -0.3061
H       -3.6904  -0.3445  -1.0837
H       -3.8322  -0.5442  1.0829
H       -3.2258  -1.4007  -0.1404
H       -1.2467  0.2840  2.3689
H       -1.0471  -1.0162  1.7659
H       1.3261  -0.8673  -1.7892
H       1.3027  0.9695  -1.9933
H       3.5233  0.4374  -1.4521
H       2.9428  1.3113  -0.2145
H       2.6674  -1.5191  0.6084
H       3.7044  -0.2131  1.1057
H       1.0089  -1.0459  1.8638
H       1.4155  0.6478  1.6549
H       -1.5022  -0.7808  -1.8285
