27

Co      0.0000  0.0000  0.0000
Cl      -0.0713  -2.3552  -0.2010
Cl      -0.0042  2.2170  0.2281
N       -1.5593  -0.0635  -1.2701
N       -1.3835  -0.1910  1.3484
N       1.6720  0.1847  -1.4635
N       1.4643  -0.3325  1.2180
C       -2.7987  0.2881  -0.7585
C       -2.7890  -0.5291  0.7036
C       2.8680  0.3939  -0.7623
C       2.8260  -0.5006  0.7268
H       -1.3870  0.7747  -1.7922
H       -2.7217  1.2999  -0.2360
H       -3.6864  0.1653  -1.3703
H       -3.8170  -0.1941  1.0484
H       -2.8596  -1.5359  0.2028
H       -1.5330  0.8768  1.4807
H       -1.2106  -0.9756  1.9450
H       1.9159  -0.7210  -1.8670
H       0.7921  0.8819  -1.9715
H       3.6260  -0.0712  -1.4036
H       2.9424  1.3163  0.1082
H       2.4266  -1.5856  0.6106
H       3.4748  -0.1395  1.5562
H       1.0530  -0.6716  2.2848
H       1.5801  0.4306  1.8893
H       -1.2769  -0.9092  -1.8272
