27

Co      0.0000  0.0000  0.0000
Cl      0.0028  -2.2855  -0.2076
Cl      -0.0428  2.3367  0.1875
N       -1.3494  0.1818  -1.4148
N       -1.5167  -0.1661  1.3167
N       1.4833  0.0985  -1.3494
N       1.5373  -0.1537  1.2977
C       -2.6357  0.3739  -0.5694
C       -2.7501  -0.3615  0.7226
C       2.8071  0.4216  -0.6724
C       2.9032  -0.4113  0.6530
H       -0.8453  0.6604  -2.2821
H       -2.5984  1.4664  -0.4314
H       -3.6224  0.8611  -1.3149
H       -3.5712  -0.2353  1.4290
H       -2.8009  -1.4003  0.4600
H       -1.2697  0.5304  2.1199
H       -1.5364  -1.2980  1.5691
H       1.5769  -0.6461  -2.0515
H       1.3450  1.0734  -1.7576
H       3.7958  0.3136  -1.1582
H       2.8646  1.3954  -0.0019
H       2.4951  -1.5003  0.5645
H       3.8643  0.2112  0.9690
H       1.3219  -0.9279  1.9045
H       1.9449  0.4971  2.1470
H       -1.1812  -0.8803  -1.5869
