27

Co      0.0000  0.0000  0.0000
Cl      0.0976  -2.2320  -0.2322
Cl      0.0590  2.3502  0.2490
N       -1.3736  0.1938  -1.2917
N       -1.4495  0.0718  1.3018
N       1.4535  0.1673  -1.3207
N       1.4836  -0.0915  1.2364
C       -2.4922  0.3494  -0.7192
C       -2.7321  -0.3812  0.6397
C       2.8164  0.4279  -0.7793
C       2.8140  -0.3507  0.6569
H       -1.2612  1.1460  -1.6830
H       -2.5340  1.4016  -0.4765
H       -3.2934  0.4160  -1.5230
H       -3.6791  -0.5989  1.3095
H       -2.8986  -1.3899  0.1606
H       -1.5400  0.9154  1.8529
H       -1.3139  -0.6104  2.0399
H       1.1053  -0.4396  -2.3196
H       2.0568  1.0230  -2.0895
H       3.5425  0.1586  -1.5379
H       2.9078  1.4082  -0.1682
H       2.9676  -1.4362  0.5426
H       3.7466  -0.4246  1.3182
H       1.4876  -0.7761  1.9971
H       1.5861  0.8009  1.7033
H       -1.3683  -0.8379  -1.5003
