27

Co      0.0000  0.0000  0.0000
Cl      0.0497  -2.3057  -0.1148
Cl      0.0087  2.1785  0.2747
N       -1.3386  0.0728  -1.2961
N       -1.5993  -0.1887  1.4581
N       1.4365  0.0603  -1.3460
N       1.4633  -0.3584  1.5060
C       -2.8339  0.2488  -0.6743
C       -2.7886  -0.4310  0.6133
C       2.7885  0.2916  -0.6863
C       2.8121  -0.5271  0.6558
H       -1.6172  0.8880  -1.9999
H       -3.2354  1.2489  -0.2273
H       -3.9823  0.6054  -1.1726
H       -3.2449  -0.4132  1.8267
H       -2.7509  -1.4279  0.2018
H       -1.8030  0.5538  2.1255
H       -0.8183  -0.7868  2.1035
H       1.7595  -0.6970  -1.9916
H       1.1558  0.9850  -1.7526
H       3.7554  0.5346  -1.3994
H       2.6875  1.3984  -0.6168
H       2.8698  -1.6970  0.9341
H       3.7523  -0.2788  1.1506
H       1.5410  -1.1389  2.1747
H       1.7310  0.7094  1.6431
H       -1.5864  -0.5425  -2.2329
