27

Co      0.0000  0.0000  0.0000
Cl      -0.0735  -2.3933  -0.1702
Cl      0.0033  2.3319  0.2353
N       -1.4921  0.0387  -1.2781
N       -1.5376  -0.1986  1.2355
N       1.4666  0.1284  -1.4218
N       1.4055  -0.2616  1.3077
C       -2.7785  0.4634  -0.5695
C       -2.7181  -0.5250  0.5821
C       2.7460  0.4099  -0.6605
C       2.6076  -0.2700  0.6890
H       -1.9295  0.8968  -1.9689
H       -3.1626  1.5207  -0.3479
H       -3.7196  0.3617  -1.1473
H       -3.8856  -0.3649  0.8143
H       -3.1296  -1.5318  0.1735
H       -1.4709  0.5952  1.8926
H       -1.3638  -0.7210  2.1646
H       1.1101  -0.7427  -1.9631
H       1.5709  0.9800  -2.0264
H       3.6717  0.2265  -1.2023
H       2.7187  1.4476  -0.3191
H       2.3455  -1.2965  0.3016
H       3.3147  -0.1604  1.5400
H       1.4304  -0.9609  2.0539
H       2.2034  0.6853  1.5902
H       -1.8370  -0.7073  -1.9657
