27

Co      0.0000  0.0000  0.0000
Cl      0.0229  -2.2892  -0.1736
Cl      0.0037  2.1647  0.2039
N       -1.4961  0.1516  -1.4453
N       -1.3091  -0.2162  1.3068
N       1.6047  0.2066  -1.3827
N       1.5031  -0.2046  1.4331
C       -2.7372  0.4203  -0.7473
C       -2.7192  -0.4508  0.6311
C       2.8533  0.2878  -0.7631
C       2.8332  -0.4059  0.6188
H       -0.9523  0.8435  -2.0375
H       -2.7251  1.3965  -0.0952
H       -3.6657  0.6516  -1.4573
H       -3.5646  -0.8597  1.5434
H       -2.8173  -1.6411  0.9807
H       -1.4729  0.6973  1.7013
H       -1.1872  -0.9548  1.9713
H       1.7026  -0.3686  -2.3703
H       1.2504  1.0254  -1.8963
H       3.9333  -0.1564  -0.9957
H       2.7910  1.2910  -0.2860
H       2.7946  -1.4811  0.4721
H       3.8403  -0.3071  1.1011
H       0.8769  -0.7740  2.1524
H       1.7785  0.8383  1.6061
H       -1.4492  -0.8283  -1.7431
