27

Co      0.0000  0.0000  0.0000
Cl      0.0303  -2.3242  -0.2869
Cl      0.0510  2.2280  0.2002
N       -1.4457  0.0130  -1.4986
N       -1.4162  -0.1171  1.3489
N       1.5058  0.0090  -1.2435
N       1.3775  -0.2195  1.2457
C       -2.9076  0.3132  -0.7020
C       -2.7669  -0.6766  0.6833
C       2.9167  0.2834  -0.7271
C       2.8429  -0.5288  0.5905
H       -1.7676  0.7262  -2.3407
H       -2.0184  1.3583  -0.1954
H       -4.0745  0.1622  -0.9287
H       -3.6340  -0.0768  1.1155
H       -2.7137  -1.7162  0.3766
H       -0.8218  0.6598  2.0449
H       -0.7258  -0.8112  1.9365
H       1.8928  -0.8937  -1.6684
H       1.3959  0.7386  -1.9512
H       4.0708  0.1100  -0.9614
H       3.1601  1.2719  -0.1763
H       2.5966  -1.6543  0.6943
H       3.5966  0.2225  1.1000
H       1.6022  -0.9724  2.0116
H       1.5054  0.5760  1.8746
H       -1.3327  -1.0265  -1.7300
