27

Co      0.0000  0.0000  0.0000
Cl      0.0071  -2.3309  -0.2693
Cl      0.0044  2.2748  0.2240
N       -1.2983  0.0410  -1.2568
N       -1.3204  -0.1920  1.3007
N       1.4966  0.1609  -1.4196
N       1.3649  -0.1073  1.3955
C       -2.5940  0.4177  -0.7119
C       -2.7986  -0.2930  0.7744
C       2.9138  0.4090  -0.5049
C       2.8640  -0.4550  0.5922
H       -1.5220  0.7435  -2.0747
H       -3.0160  1.3946  -0.2035
H       -3.5100  0.0078  -1.1735
H       -3.7475  -0.0355  1.2579
H       -2.6120  -1.3768  0.6824
H       -1.5671  0.5816  1.9637
H       -1.1488  -0.6279  2.3162
H       1.2409  -0.7910  -1.8048
H       1.4466  0.8028  -2.2193
H       3.7893  0.6955  -1.3138
H       3.2825  1.5284  -0.5954
H       2.7105  -1.5441  0.5686
H       3.5743  0.0232  1.2879
H       1.3662  -0.9279  1.9976
H       1.9454  0.8842  1.6384
H       -1.6859  -0.8206  -1.7423
