27

Co      0.0000  0.0000  0.0000
Cl      -0.0167  -2.2819  -0.2514
Cl      0.0033  2.2403  0.2425
N       -1.4054  0.1239  -1.3137
N       -1.3201  -0.1940  1.4565
N       1.5086  0.0132  -1.1668
N       1.6133  -0.1278  1.4214
C       -2.8048  0.2769  -0.6228
C       -2.8256  -0.4106  0.7550
C       2.8527  0.3617  -0.5081
C       2.7806  -0.4464  0.6037
H       -1.3759  0.6573  -2.2564
H       -3.0445  1.3798  -0.6671
H       -3.9174  0.0249  -0.9253
H       -3.6276  0.3652  1.1995
H       -2.8377  -1.3175  -0.1178
H       -1.9825  0.9645  1.4230
H       -1.7436  -0.9995  2.1868
H       1.2730  -0.8253  -1.7470
H       1.6540  0.5770  -2.1323
H       3.5581  0.5699  -1.4915
H       2.4940  1.4189  -0.1556
H       2.9981  -1.5172  0.5527
H       3.6980  0.2022  0.9508
H       1.9989  -0.9855  2.0930
H       1.3745  0.5849  2.2067
H       -1.4305  -0.7700  -1.8053
