27

Co      0.0000  0.0000  0.0000
Cl      -0.0262  -2.4025  -0.2617
Cl      -0.0327  2.2635  0.2350
N       -1.3614  0.0825  -1.1838
N       -1.4852  -0.2073  1.3782
N       1.4774  -0.0376  -1.3845
N       1.4559  -0.2457  1.3194
C       -2.7465  0.3097  -0.6748
C       -2.6471  -0.4754  0.7169
C       2.8323  0.3747  -0.5415
C       2.8551  -0.4558  0.8285
H       -1.3147  0.8329  -1.8740
H       -2.5852  1.2933  -0.0001
H       -3.9930  0.2801  -0.8545
H       -3.4308  -0.1672  1.3859
H       -2.5236  -1.5682  0.6941
H       -1.8358  0.8199  1.5617
H       -0.9252  -0.7630  2.1361
H       1.5729  -0.9557  -1.8045
H       1.2453  0.4501  -2.3240
H       3.6729  0.5437  -1.3701
H       3.2524  1.5538  -0.9071
H       2.2793  -1.6005  0.9394
H       3.9288  -0.2625  1.1613
H       1.0161  -0.9881  1.8921
H       1.6543  0.6326  1.7901
H       -1.2293  -0.7642  -1.7229
