27

Co      0.0000  0.0000  0.0000
Cl      0.0532  -2.1627  -0.2835
Cl      0.1290  2.4136  0.1306
N       -1.5099  0.2379  -1.3417
N       -1.4702  -0.1087  1.3327
N       1.4135  0.1553  -1.3490
N       1.3687  -0.1155  1.3000
C       -2.7257  0.4457  -0.6768
C       -2.6115  -0.4268  0.6223
C       2.6765  0.5279  -0.5135
C       2.8961  -0.3070  0.5361
H       -1.2228  0.5376  -2.4679
H       -2.9068  1.5300  -0.6747
H       -3.6382  -0.2657  -1.0105
H       -3.4584  0.1912  1.0751
H       -2.9286  -1.3049  -0.3558
H       -1.3220  0.8400  1.7381
H       -1.0592  -0.8607  1.9104
H       1.1961  -0.7804  -1.7518
H       1.2695  1.0221  -1.8581
H       3.5211  0.3479  -1.1564
H       2.8199  1.5662  -0.2557
H       2.9003  -1.3996  0.4448
H       3.8654  -0.5410  1.2022
H       1.6003  -0.9451  1.9497
H       1.8654  0.7054  1.8530
H       -1.1900  -0.8191  -1.5634
