27

Co      0.0000  0.0000  0.0000
Cl      -0.0793  -2.3618  -0.3002
Cl      -0.0272  2.2492  0.1798
N       -1.4204  0.0336  -1.3134
N       -1.5436  -0.0624  1.3011
N       1.3824  0.1171  -1.3849
N       1.2981  -0.1227  1.2569
C       -2.7489  0.2778  -0.6056
C       -2.7194  -0.4454  0.5661
C       2.7341  0.4373  -0.7279
C       2.6636  -0.4438  0.6538
H       -1.3787  0.8363  -1.9266
H       -3.2562  1.4258  -0.9716
H       -3.6167  -0.0574  -1.1839
H       -3.5554  -0.3753  1.2529
H       -2.9108  -1.4200  0.0093
H       -1.2880  1.0129  1.4828
H       -1.0261  -0.5678  2.1358
H       1.6028  -0.5779  -2.1653
H       1.5539  1.0169  -1.9705
H       3.5022  0.0197  -1.3784
H       2.4240  1.5049  -0.5277
H       2.7958  -1.5212  0.4861
H       3.4640  -0.3140  1.3966
H       1.1947  -1.0783  1.6915
H       1.9472  0.5389  2.0341
H       -2.1666  -0.5238  -2.2756
