27

Co      0.0000  0.0000  0.0000
Cl      0.0057  -2.3412  -0.2618
Cl      -0.0197  2.3427  0.1300
N       -1.3328  0.3118  -1.4350
N       -1.4680  -0.1256  1.3308
N       1.4575  0.1637  -1.3539
N       1.4681  -0.2569  1.2387
C       -2.8316  0.3692  -0.7585
C       -2.6660  -0.4093  0.6534
C       2.9479  0.4168  -0.7061
C       2.8310  -0.3149  0.6170
H       -1.3242  1.1729  -1.9695
H       -2.7535  1.3301  -0.0959
H       -3.5497  -0.2604  -1.3783
H       -3.3989  -0.2039  1.4323
H       -2.4807  -1.4072  0.1540
H       -1.5301  0.5940  2.0702
H       -1.0499  -0.8226  1.9727
H       1.3985  -0.7005  -1.8578
H       1.0980  0.7975  -2.0822
H       3.6418  -0.0145  -1.4513
H       3.1584  1.4663  -0.4771
H       2.5788  -1.4652  0.7475
H       3.9389  -0.5483  1.1163
H       0.6208  -0.8564  1.8550
H       1.4554  0.7716  1.4519
H       -1.5363  -0.6260  -1.8051
