27

Co      0.0000  0.0000  0.0000
Cl      -0.0072  -2.3329  -0.2237
Cl      -0.0117  2.1698  0.2261
N       -1.3818  0.0964  -1.3468
N       -1.4870  -0.2478  1.4130
N       1.5735  0.0292  -1.2345
N       1.4489  -0.0800  1.2514
C       -2.9500  0.4383  -0.6223
C       -2.6900  -0.2820  0.6901
C       2.7937  0.4516  -0.6338
C       2.5643  -0.3390  0.6671
H       -1.4990  1.0080  -1.8925
H       -2.5476  1.5818  -0.7565
H       -4.0317  0.1057  -0.9046
H       -3.4116  -0.3734  1.6054
H       -2.3928  -1.3907  0.6652
H       -1.3795  0.6282  1.8928
H       -1.0538  -1.0059  1.9779
H       1.4703  -0.9761  -1.5027
H       1.5267  1.0490  -1.5809
H       3.6075  0.1364  -1.2705
H       2.6586  1.5730  -0.7413
H       3.0048  -1.4447  0.6384
H       3.6890  -0.6060  1.1423
H       1.3203  -0.8498  1.9058
H       0.9392  0.6132  2.0925
H       -1.7024  -0.5040  -2.2971
