27

Co      0.0000  0.0000  0.0000
Cl      0.0118  -2.1791  -0.2637
Cl      0.0439  2.3634  0.1310
N       -1.4043  0.1063  -1.2305
N       -1.3525  -0.1169  1.3668
N       1.5027  0.1730  -1.2819
N       1.4628  -0.2114  1.2510
C       -2.5852  0.2959  -0.7043
C       -2.7721  -0.3452  0.6147
C       2.6658  0.3938  -0.5545
C       2.8130  -0.3113  0.6414
H       -1.5059  0.8204  -2.0075
H       -2.6908  1.3379  -0.4095
H       -3.5912  0.8314  -1.4606
H       -3.7018  -0.3242  1.2201
H       -3.0325  -1.4213  0.5472
H       -1.5277  0.6406  2.0777
H       -1.0031  -0.6546  2.2122
H       1.1286  -0.5254  -2.0813
H       1.5909  1.1944  -1.7233
H       3.6672  0.4067  -1.0773
H       2.6815  1.4824  -0.4244
H       2.5391  -1.4053  0.5601
H       3.5020  0.0992  1.3901
H       1.2682  -1.2663  1.5242
H       1.9423  0.6745  1.6425
H       -2.1770  -0.5187  -2.0723
