27

Co      0.0000  0.0000  0.0000
Cl      0.0387  -2.4590  -0.2647
Cl      0.0633  2.2779  0.2436
N       -1.3708  0.0781  -1.5385
N       -1.5222  -0.1338  1.4190
N       1.6097  0.0474  -1.2812
N       1.5050  -0.0697  1.2977
C       -2.7522  0.4030  -0.7598
C       -2.7353  -0.4090  0.7572
C       2.7118  0.5163  -0.7687
C       2.8588  -0.3938  0.5817
H       -1.3356  1.0668  -1.9119
H       -2.6107  1.4665  -0.5893
H       -3.5485  0.1779  -1.4621
H       -3.5888  -0.0959  1.3457
H       -3.7610  -1.3092  0.0019
H       -1.5475  0.8634  1.7146
H       -0.7126  -0.8602  1.8855
H       1.5054  -0.6640  -2.0473
H       1.4322  0.7665  -1.9746
H       3.1952  0.3354  -1.8889
H       2.5192  1.5555  -0.4500
H       2.3892  -1.5226  0.5473
H       3.6614  -0.2909  1.3197
H       1.3944  -0.8183  1.9571
H       1.5546  0.6218  2.0765
H       -1.6298  -0.7563  -2.0930
