27

Co      0.0000  0.0000  0.0000
Cl      -0.0567  -2.3110  -0.1004
Cl      -0.0613  2.2238  0.2637
N       -1.4205  0.0941  -1.2080
N       -1.3005  -0.2544  1.3600
N       1.3842  0.0482  -1.3172
N       1.2773  -0.3239  1.3614
C       -2.7823  0.4092  -0.6479
C       -2.7344  -0.6041  0.6479
C       2.8335  0.4551  -0.7280
C       2.6708  -0.4534  0.5429
H       -1.2556  0.7454  -1.9834
H       -3.1085  1.4779  -0.5306
H       -3.3689  0.4745  -1.7486
H       -3.5676  -0.1167  1.1745
H       -2.7373  -1.6480  0.4228
H       -1.9196  0.4744  2.0149
H       -1.4702  -1.2005  1.8734
H       1.9724  -0.7986  -1.8375
H       1.7894  0.7267  -2.2027
H       3.6404  -0.5724  -1.0683
H       3.1573  1.4128  -0.1136
H       2.6120  -1.5833  0.6878
H       3.6148  -0.1170  0.9990
H       1.4487  -1.0928  2.0608
H       1.1449  0.6483  1.7117
H       -1.1418  -0.5653  -2.1072
