27

Co      0.0000  0.0000  0.0000
Cl      -0.0735  -2.2866  -0.2118
Cl      -0.0450  2.3099  0.1906
N       -1.4776  0.2585  -1.2225
N       -1.5651  -0.0724  1.4408
N       1.3947  0.2968  -1.3096
N       1.3734  -0.0907  1.3605
C       -2.8668  0.4975  -0.7833
C       -2.6699  -0.3550  0.7855
C       2.5554  0.5097  -0.4313
C       2.5532  -0.4126  0.5915
H       -2.0251  0.9786  -2.1206
H       -2.7189  1.5486  -0.4745
H       -3.9267  0.2438  -1.1084
H       -3.6759  -0.1799  1.2405
H       -2.6442  -1.4816  0.8565
H       -1.7125  0.8119  1.9021
H       -1.3093  -0.7791  2.0980
H       1.7089  -0.6474  -1.6676
H       1.7282  0.6809  -2.5044
H       3.5363  0.5949  -1.0236
H       2.6384  1.6707  -0.7793
H       2.6233  -1.4171  0.1454
H       3.1662  -0.1507  1.4758
H       1.5543  -1.0315  1.8694
H       1.2793  0.9134  1.6386
H       -1.6305  -0.4346  -2.0301
