27

Co      0.0000  0.0000  0.0000
Cl      -0.0743  -2.3661  -0.2985
Cl      -0.0449  2.3446  0.1569
N       -1.3654  0.1121  -1.3021
N       -1.4805  -0.2579  1.3271
N       1.4711  -0.0063  -1.3586
N       1.4900  -0.1357  1.2647
C       -2.9171  0.3759  -0.6715
C       -2.8315  -0.4922  0.6221
C       2.5992  0.3545  -0.4671
C       2.8536  -0.5249  0.6475
H       -1.5853  0.9395  -1.9600
H       -2.3234  1.4590  -0.5016
H       -3.7003  -0.2852  -1.2005
H       -3.4741  -0.2768  1.5163
H       -2.7460  -1.4862  0.0804
H       -1.6298  0.6246  1.7901
H       -0.9794  -0.7979  2.1331
H       1.4945  -0.7447  -2.0635
H       0.7740  0.8456  -1.7422
H       3.5135  0.0312  -0.9839
H       2.8715  1.4919  -0.7523
H       2.6473  -1.5516  0.2974
H       3.9129  -0.0331  0.8624
H       0.9207  -0.6098  2.1233
H       1.6731  0.7235  1.7840
H       -1.6536  -0.9149  -1.4990
