27

Co      0.0000  0.0000  0.0000
Cl      0.0379  -2.3051  -0.2249
Cl      0.0978  2.1934  0.2199
N       -1.4046  0.1061  -1.3613
N       -1.4397  -0.1065  1.3310
N       1.6295  0.1466  -1.3919
N       1.5730  -0.1256  1.4688
C       -2.7479  0.2812  -0.4879
C       -2.6063  -0.5310  0.7084
C       2.8748  0.3596  -0.6086
C       2.8795  -0.4212  0.7294
H       -1.0606  0.6810  -2.1749
H       -2.5514  1.3227  -0.0986
H       -3.6104  0.3830  -1.2267
H       -3.4089  0.1285  1.2041
H       -2.5700  -1.5716  0.4811
H       -1.4577  0.6935  1.9435
H       -1.5263  -0.9372  1.9538
H       1.3772  -0.9234  -1.5836
H       1.6580  1.0849  -1.8534
H       3.7696  0.1217  -1.1669
H       2.4975  1.3643  -0.0802
H       3.1713  -1.4109  0.1904
H       3.8059  -0.5895  1.4359
H       1.8119  -0.7509  2.3626
H       1.4128  0.8721  1.7887
H       -1.5321  -0.6040  -2.1156
