27

Co      0.0000  0.0000  0.0000
Cl      0.0051  -2.3730  -0.3076
Cl      -0.0087  2.1714  0.1681
N       -1.5030  -0.0130  -1.4961
N       -1.4799  -0.0997  1.1682
N       1.5690  0.1463  -1.4016
N       1.5231  -0.1324  1.4104
C       -2.6903  0.3358  -0.7316
C       -2.7729  -0.3783  0.7861
C       2.8794  0.4718  -0.7894
C       2.8084  -0.5297  0.5689
H       -1.1719  1.0104  -1.7720
H       -2.8933  1.3903  -0.5340
H       -3.8004  0.4608  -1.1768
H       -3.7116  0.1298  1.1477
H       -2.4663  -1.3257  -0.0053
H       -1.1320  0.6384  1.9244
H       -1.3421  -0.6823  2.0277
H       1.9815  -0.4926  -2.2577
H       1.7534  1.0697  -1.9604
H       3.6613  0.0809  -1.4245
H       2.7142  1.5568  -0.6640
H       2.8352  -1.6027  0.4066
H       3.3856  -0.0190  1.4351
H       1.1952  -0.8684  2.0368
H       1.1488  0.7904  1.8355
H       -2.2396  -0.7886  -2.0773
