27

Co      0.0000  0.0000  0.0000
Cl      0.1209  -2.3068  -0.2450
Cl      0.0333  2.2471  0.2141
N       -1.3469  0.2151  -1.2084
N       -1.2955  -0.2091  1.6332
N       1.6096  0.1110  -1.3843
N       1.6616  -0.1340  1.5161
C       -2.6684  0.3986  -0.6427
C       -2.8450  -0.3910  0.6362
C       2.9027  0.3008  -0.5554
C       2.8663  -0.5064  0.6995
H       -1.0945  1.0003  -1.7782
H       -2.9627  1.4073  -0.3522
H       -3.3827  -0.2747  -1.2573
H       -3.7498  -0.0625  1.1715
H       -2.8039  -1.5245  0.7560
H       -1.1662  0.9345  1.6943
H       -1.4971  -0.9911  2.3136
H       1.8285  -0.7415  -1.8765
H       0.7905  0.6794  -2.0252
H       3.5148  0.1372  -1.5322
H       3.1984  1.4564  -0.9372
H       2.7867  -1.5578  0.5073
H       3.2148  -0.0394  1.8572
H       1.3891  -0.9288  2.0705
H       1.2188  0.7246  2.0552
H       -1.3632  -0.5872  -1.8389
