27

Co      0.0000  0.0000  0.0000
Cl      -0.0679  -2.2803  -0.2166
Cl      -0.0835  2.2391  0.2521
N       -1.5727  0.0964  -1.4630
N       -1.4336  -0.1595  1.3563
N       1.4606  0.1662  -1.3669
N       1.6570  -0.1092  1.4703
C       -2.8252  0.4293  -0.4961
C       -2.9175  -0.2956  0.6847
C       2.6867  0.4145  -0.5469
C       2.6572  -0.3973  0.6875
H       -1.1793  0.6646  -2.2505
H       -2.5377  1.5537  -0.5902
H       -3.5545  0.2560  -1.3191
H       -3.6531  -0.2465  1.5220
H       -2.4077  -1.3105  0.1545
H       -1.9596  0.8465  1.5912
H       -1.2768  -0.3885  2.6106
H       1.2411  -0.8514  -1.6194
H       0.9818  1.1519  -1.6139
H       3.5883  0.2593  -1.1371
H       3.1129  1.5126  -0.5775
H       2.8023  -1.3940  0.2579
H       3.4850  -0.0327  1.2771
H       1.1832  -0.9839  1.8792
H       1.2849  0.7692  1.9890
H       -1.2909  -0.8867  -1.7891
