27

Co      0.0000  0.0000  0.0000
Cl      0.0847  -2.2789  -0.2846
Cl      0.0791  2.1508  0.1347
N       -1.3834  0.1741  -1.4041
N       -1.4768  -0.2907  1.3923
N       1.4944  0.0301  -1.3784
N       1.4638  -0.1101  1.3126
C       -2.6589  0.2765  -0.6049
C       -2.8271  -0.4163  0.5433
C       2.8453  0.3047  -0.7803
C       2.8801  -0.4270  0.7967
H       -1.3762  1.1080  -1.8700
H       -3.0415  1.2614  -0.0778
H       -3.5871  0.3936  -1.2794
H       -3.7203  -0.2154  1.1276
H       -3.1116  -1.4856  0.4805
H       -1.5882  0.6684  1.7527
H       -0.8696  -0.8663  2.1022
H       1.1118  -0.7348  -2.0811
H       1.2479  0.7291  -2.0719
H       3.5805  0.0325  -1.5383
H       2.6604  1.3157  -0.2751
H       2.9107  -1.3813  0.0339
H       3.8402  -0.4033  1.3563
H       1.2773  -1.0537  1.7229
H       1.7360  0.7245  1.8408
H       -1.0033  -0.7576  -1.8373
