27

Co      0.0000  0.0000  0.0000
Cl      0.0711  -2.2976  -0.2409
Cl      0.0800  2.2447  0.1785
N       -1.3623  0.2076  -1.3707
N       -1.3683  -0.1256  1.3403
N       1.6290  0.2063  -1.4347
N       1.5159  -0.1451  1.3300
C       -2.7275  0.3329  -0.6003
C       -2.7372  -0.3068  0.6550
C       2.8027  0.3638  -0.6128
C       2.7461  -0.2584  0.5349
H       -0.9869  0.7434  -2.2026
H       -2.1817  1.5069  -0.9141
H       -3.4909  -0.0311  -1.2862
H       -3.2187  0.5035  1.5048
H       -2.8792  -1.3062  0.2795
H       -1.9686  0.4739  2.2432
H       -1.2246  -0.7976  2.1027
H       1.6246  -0.5490  -2.0883
H       1.3343  1.2421  -1.7200
H       3.8415  0.2266  -1.0116
H       2.4575  1.3307  0.0741
H       3.2188  -1.3828  0.7239
H       3.5388  -0.0737  1.2736
H       1.8053  -1.0756  1.8836
H       1.7447  0.7296  1.7857
H       -1.6457  -0.6077  -1.9369
