27

Co      0.0000  0.0000  0.0000
Cl      0.0366  -2.2773  -0.2763
Cl      0.0062  2.2431  0.1110
N       -1.5580  0.0923  -1.4442
N       -1.4858  -0.2136  1.3288
N       1.4295  0.1050  -1.3899
N       1.5079  -0.2701  1.3261
C       -2.7702  0.2787  -0.7929
C       -2.8865  -0.4509  0.6013
C       2.7730  0.3503  -0.7357
C       2.7573  -0.5582  0.6238
H       -0.8189  0.9742  -1.7799
H       -2.4882  1.3196  -0.5135
H       -3.5032  0.3487  -1.6912
H       -3.6954  -0.4906  1.3843
H       -2.7366  -1.4890  0.2541
H       -1.2627  0.6118  1.9168
H       -0.7095  -0.8122  1.9626
H       1.8870  -0.6619  -2.0367
H       1.6024  0.7248  -2.2851
H       3.5275  0.0753  -1.4849
H       3.0165  1.5315  -1.1556
H       3.2179  -1.4932  -0.1024
H       3.3599  -0.0575  1.4529
H       1.0879  -1.4567  1.3723
H       1.4881  0.6324  1.7465
H       -1.5019  -0.6205  -2.1884
