27

Co      0.0000  0.0000  0.0000
Cl      0.0403  -2.3332  -0.1894
Cl      0.0475  2.1632  0.2097
N       -1.5456  -0.0159  -1.3605
N       -1.4723  -0.1647  1.3014
N       1.6296  0.1812  -1.3814
N       1.4442  -0.2305  1.2058
C       -2.8037  0.3495  -0.6306
C       -2.7189  -0.3134  0.6000
C       2.7288  0.3871  -0.7517
C       2.6754  -0.3847  0.5766
H       -0.6979  0.6031  -1.9600
H       -2.7419  1.3421  -0.0557
H       -3.6226  0.4969  -1.4370
H       -3.7439  -0.6707  1.2364
H       -2.8055  -1.3699  0.3626
H       -1.6185  0.7806  1.6477
H       -1.6943  -1.1836  1.7374
H       1.2944  -0.6231  -2.0167
H       1.5342  1.0894  -1.8736
H       3.8741  0.0435  -0.9266
H       2.2725  1.3742  -0.0636
H       2.5199  -1.5132  0.6329
H       3.5919  -0.0767  1.0918
H       1.2757  -0.8812  1.9887
H       1.6023  0.4814  1.9485
H       -1.7009  -0.8072  -1.9698
