27

Co      0.0000  0.0000  0.0000
Cl      -0.0203  -2.3559  -0.1604
Cl      -0.0150  2.1769  0.2404
N       -1.3628  0.0442  -1.3552
N       -1.4705  -0.2255  1.2981
N       1.6782  0.2105  -1.3611
N       1.4954  -0.1889  1.2225
C       -2.7869  0.4548  -0.5717
C       -2.7008  -0.3981  0.6443
C       2.7086  0.4258  -0.5653
C       2.8437  -0.4411  0.5400
H       -1.3184  0.7445  -2.0732
H       -3.4818  1.6500  -1.1730
H       -3.3104  0.0437  -1.5800
H       -3.3406  0.0525  1.4515
H       -2.6092  -1.4471  0.4722
H       -1.7119  0.7336  1.6298
H       -1.2102  -0.7851  2.1323
H       1.4571  -0.5723  -2.0055
H       1.6061  1.2501  -1.6835
H       3.3317  -0.2469  -1.2989
H       3.0219  1.4820  -0.4719
H       2.6647  -1.5220  0.3990
H       3.6894  -0.1150  1.1250
H       1.4275  -0.9582  1.8923
H       1.3685  0.4700  2.0802
H       -1.9895  -0.8528  -1.7688
