27

Co      0.0000  0.0000  0.0000
Cl      -0.0762  -2.4588  -0.1616
Cl      -0.0688  2.2685  0.2704
N       -1.4661  0.0839  -1.2540
N       -1.5070  -0.1144  1.2848
N       1.4329  0.0555  -1.3162
N       1.4662  -0.1360  1.2615
C       -2.8561  0.3683  -0.5026
C       -2.7397  -0.5329  0.5317
C       2.7791  0.4303  -0.6380
C       2.6918  -0.5078  0.6611
H       -1.2859  0.9420  -1.7718
H       -3.0516  1.5337  -0.8581
H       -3.3485  -0.0666  -1.5274
H       -3.7752  -0.2422  0.8734
H       -2.7028  -1.5983  0.3977
H       -1.3608  0.8374  1.6697
H       -1.2441  -0.5002  2.3419
H       1.1854  -0.8035  -1.8693
H       1.4489  1.1995  -1.5539
H       3.5094  -0.0220  -1.3186
H       2.4875  1.4546  -0.2208
H       2.7163  -1.5413  0.3591
H       3.4865  -0.1770  1.3205
H       1.5587  -1.1147  1.7327
H       2.0997  0.3970  2.2614
H       -1.7020  -0.5952  -2.0561
