27

Co      0.0000  0.0000  0.0000
Cl      -0.0801  -2.2763  -0.1791
Cl      -0.1241  2.2430  0.2012
N       -1.4585  0.1640  -1.4103
N       -1.5834  -0.1863  1.4612
N       1.2731  0.1625  -1.2387
N       1.6385  -0.2535  1.4454
C       -2.9083  0.3503  -0.8338
C       -2.9627  -0.4901  0.8057
C       2.7891  0.4630  -0.6909
C       2.5888  -0.6552  0.7230
H       -1.4654  0.9982  -2.0013
H       -2.8342  1.3915  -0.5250
H       -3.9762  -0.2050  -1.0466
H       -3.9222  -0.0187  1.1700
H       -2.6821  -1.5799  0.6479
H       -1.5169  0.7449  1.8678
H       -1.6050  -1.0736  1.9814
H       1.2343  -0.6452  -1.8576
H       1.3288  0.6595  -2.2517
H       3.5623  -0.0037  -1.3048
H       2.6582  1.5724  -0.6760
H       2.8065  -1.5908  -0.0101
H       3.3897  0.0802  1.1715
H       1.0743  -1.2040  1.7591
H       1.4150  0.3455  2.3887
H       -1.7165  -0.7212  -1.8728
