27

Co      0.0000  0.0000  0.0000
Cl      0.0413  -2.3513  -0.2499
Cl      0.0160  2.1644  0.2003
N       -1.5608  0.0961  -1.5461
N       -1.5395  -0.1502  1.4145
N       1.5114  0.0810  -1.3501
N       1.6290  -0.1501  1.2863
C       -2.7485  0.3215  -0.7110
C       -2.7576  -0.4803  0.5274
C       2.7116  0.3545  -0.5865
C       2.7383  -0.4606  0.3969
H       -1.4658  1.0536  -1.9488
H       -2.9089  1.4183  -0.7339
H       -3.5083  0.3395  -1.5818
H       -3.5366  0.0154  1.1405
H       -3.1379  -1.5745  0.6077
H       -1.6238  0.8314  1.7333
H       -0.9939  -0.5033  2.4039
H       1.9927  -0.6362  -2.0838
H       1.6908  0.8770  -2.0266
H       3.4827  0.0951  -1.3031
H       3.1270  1.3363  -0.1699
H       3.0415  -1.4943  0.1770
H       3.4067  -0.6754  1.4488
H       1.5861  -0.9341  1.9054
H       1.6796  0.8658  1.5257
H       -1.4578  -0.7526  -2.0961
