27

Co      0.0000  0.0000  0.0000
Cl      0.0461  -2.2409  -0.2870
Cl      0.0876  2.1911  0.1855
N       -1.4356  0.1679  -1.2819
N       -1.5092  -0.1250  1.2979
N       1.5248  0.1924  -1.3733
N       1.3754  0.0130  1.4040
C       -2.8003  0.2977  -0.6107
C       -2.7301  -0.5098  0.7790
C       2.8206  0.4207  -0.6479
C       2.7624  -0.5548  0.6569
H       -1.4054  0.8352  -2.0786
H       -3.1121  1.4902  -1.0018
H       -3.8067  0.4785  -1.2298
H       -3.8739  -0.0983  0.9547
H       -3.0087  -1.6532  1.0851
H       -1.6203  0.7394  1.8086
H       -1.3974  -0.8038  2.0383
H       1.4468  -0.9671  -1.3814
H       1.5047  1.0180  -1.9531
H       3.4848  0.4554  -1.6300
H       2.8965  1.5322  -0.6888
H       2.5581  -1.6261  0.5467
H       3.5662  -0.0506  1.2183
H       0.8018  -0.5910  2.1056
H       2.0154  0.7100  2.1239
H       -1.6467  -0.5327  -2.0588
