27

Co      0.0000  0.0000  0.0000
Cl      -0.0115  -2.3568  -0.2197
Cl      -0.0523  2.3277  0.1899
N       -1.4342  0.0860  -1.2768
N       -1.4989  -0.2383  1.4937
N       1.4529  0.1453  -1.2692
N       1.6409  -0.2568  1.4636
C       -2.9007  0.3790  -0.6234
C       -2.7436  -0.5435  0.5694
C       2.6360  0.1603  -0.5288
C       2.7586  -0.5225  0.6647
H       -1.3195  0.7067  -2.0993
H       -2.8415  1.4476  -0.3945
H       -3.8681  0.1972  -1.1317
H       -3.6315  0.1744  0.9395
H       -2.6048  -1.5789  0.2554
H       -1.7923  0.8014  1.6724
H       -0.9344  -0.9162  2.0856
H       1.3964  -0.7203  -1.7895
H       1.3554  0.6422  -2.2171
H       3.5125  0.1637  -1.2299
H       2.3177  1.2502  -0.4265
H       2.6951  -1.4019  -0.3760
H       3.5265  -0.1548  1.2907
H       1.4885  -1.0651  2.0386
H       1.2292  0.6617  1.9086
H       -1.3252  -0.9529  -1.5148
