27

Co      0.0000  0.0000  0.0000
Cl      0.1504  -2.3093  -0.2820
Cl      0.0384  2.4211  0.1690
N       -1.4944  0.1771  -1.5475
N       -1.3688  -0.0705  1.2068
N       1.5485  0.1566  -1.4326
N       1.5948  -0.1214  1.4469
C       -2.6601  0.4685  -0.6393
C       -2.5816  -0.3510  0.6466
C       2.8898  0.3451  -0.7664
C       2.8417  -0.3466  0.6059
H       -0.9969  1.2503  -1.7058
H       -2.6273  1.5143  -0.2815
H       -3.2888  0.8597  -1.8118
H       -3.6120  -0.2155  1.0925
H       -2.9806  -1.4255  0.6096
H       -1.6917  0.6684  1.9049
H       -1.5015  -0.7915  1.9453
H       1.3894  -0.6970  -1.9858
H       1.1793  0.7065  -2.2534
H       3.5531  0.3794  -1.7365
H       2.9418  1.3097  -0.0797
H       3.1101  -1.3647  0.3112
H       3.7263  -0.2606  1.2766
H       1.3639  -0.9862  1.9221
H       1.3245  0.7100  2.0313
H       -1.6276  -0.7737  -1.8854
