27

Co      0.0000  0.0000  0.0000
Cl      0.0909  -2.3959  -0.2411
Cl      0.0656  2.2378  0.1707
N       -1.4174  0.0239  -1.2348
N       -1.4355  -0.1002  1.3384
N       1.4176  0.1795  -1.2099
N       1.6407  -0.1699  1.3453
C       -2.5809  0.4628  -0.7188
C       -2.5975  -0.4179  0.6467
C       2.7923  0.3899  -0.5797
C       2.8250  -0.4535  0.5933
H       -1.4809  0.5646  -2.2004
H       -2.7718  1.4001  0.0278
H       -3.3794  0.2061  -1.3708
H       -3.6443  0.0417  0.9069
H       -2.7505  -1.4889  0.5269
H       -1.6031  0.6095  2.0885
H       -1.0588  -1.1570  1.5652
H       1.2201  -0.5118  -2.0331
H       1.2078  1.1447  -1.6115
H       3.9307  0.1038  -0.8017
H       2.9612  1.4838  -0.5371
H       3.0383  -1.6113  0.8471
H       3.9133  -0.5450  1.0525
H       1.4034  -1.0327  1.8549
H       1.5074  0.6558  1.9257
H       -1.8544  -0.7973  -1.7931
