27

Co      0.0000  0.0000  0.0000
Cl      0.0037  -2.2901  -0.1348
Cl      -0.0231  2.2669  0.3043
N       -1.5754  0.1370  -1.3291
N       -1.5894  -0.2422  1.3208
N       1.5527  0.0982  -1.4240
N       1.5413  -0.0862  1.4842
C       -2.7482  0.3498  -0.4976
C       -2.7859  -0.4156  0.7074
C       2.9551  0.3482  -0.6400
C       2.7406  -0.4534  0.7148
H       -1.4436  0.8203  -2.0407
H       -2.5157  1.4970  -0.6986
H       -3.5296  -0.1090  -1.1259
H       -3.4836  -0.2924  1.5524
H       -2.3815  -1.3819  -0.0072
H       -1.7398  0.2401  2.4524
H       -1.2930  -0.8441  2.1311
H       1.4548  -0.9810  -1.5836
H       1.4696  0.9390  -1.9604
H       3.4551  -0.1315  -1.6035
H       3.1446  1.2805  0.1191
H       2.8083  -1.5266  0.6166
H       3.6381  -0.5798  1.4569
H       1.4946  -0.9166  2.0518
H       2.0127  0.6934  2.1038
H       -1.2450  -0.9716  -1.4302
