27

Co      0.0000  0.0000  0.0000
Cl      0.0123  -2.2388  -0.2069
Cl      -0.0002  2.3918  0.1896
N       -1.4016  0.1725  -1.3878
N       -1.4523  -0.1590  1.2893
N       1.5550  0.1473  -1.3914
N       1.6102  -0.1453  1.2569
C       -2.7212  0.3970  -0.6067
C       -2.8779  -0.3641  0.5145
C       2.8042  0.4231  -0.6435
C       2.8683  -0.3741  0.5441
H       -1.1554  0.8996  -2.0339
H       -3.0396  1.4185  -0.3140
H       -3.3948  0.1894  -1.4886
H       -3.3579  -0.0487  1.5676
H       -2.5743  -1.3478  -0.0105
H       -1.7870  0.6607  1.8408
H       -1.2401  -1.0667  1.7418
H       0.9406  -0.8970  -1.6611
H       1.6096  0.7303  -2.2864
H       3.8835  0.4299  -1.0659
H       2.8024  1.4338  -0.1483
H       2.6225  -1.4706  0.5051
H       3.6797  -0.0582  1.2015
H       1.8673  -0.9154  1.9980
H       2.2925  0.5904  1.9372
H       -1.7872  -0.5316  -2.1120
