27

Co      0.0000  0.0000  0.0000
Cl      -0.0491  -2.2962  -0.2043
Cl      -0.0058  2.2619  0.2126
N       -1.3485  0.2004  -1.3222
N       -1.6792  -0.0547  1.3741
N       1.4297  0.1215  -1.1695
N       1.6543  -0.1645  1.3050
C       -2.6892  0.3324  -0.6278
C       -2.6556  -0.4863  0.5867
C       2.8833  0.4318  -0.6533
C       2.8171  -0.3236  0.4737
H       -1.3345  0.9847  -1.9534
H       -2.7312  1.3419  -0.2166
H       -3.3042  -0.1342  -1.4629
H       -3.6441  -0.6207  1.1744
H       -2.8027  -1.5553  0.4320
H       -1.4325  0.9598  1.6334
H       -1.1594  -0.6169  2.1412
H       1.9078  -0.6123  -1.8661
H       1.1470  0.7352  -1.9567
H       3.7196  -0.0952  -1.1651
H       2.8075  1.4259  -0.1800
H       2.1974  -1.4582  0.5371
H       3.5609  -0.2019  1.2793
H       1.0807  -0.9213  1.8367
H       2.1025  0.5327  2.0283
H       -2.1285  -0.6518  -1.7721
