27

Co      0.0000  0.0000  0.0000
Cl      0.1225  -2.2039  -0.1437
Cl      0.0639  2.3226  0.2606
N       -1.3852  0.3770  -1.3138
N       -1.3639  -0.0842  1.2946
N       1.3255  0.1951  -1.3656
N       1.4293  -0.0120  1.2612
C       -2.6631  0.4405  -0.5835
C       -2.5577  -0.3419  0.6456
C       2.9754  0.4179  -0.6882
C       2.7767  -0.2610  0.6342
H       -1.3450  1.0232  -2.1120
H       -3.2787  1.5671  -0.8032
H       -3.5181  0.4958  -1.3427
H       -3.4358  -0.1944  1.2664
H       -2.8134  -1.3167  0.0471
H       -1.3378  0.9231  1.5606
H       -1.6794  -0.9820  1.9041
H       1.9316  -0.6993  -1.7769
H       0.9088  0.8118  -2.0781
H       4.1028  -0.2540  -0.7542
H       3.1189  1.3820  -0.1192
H       3.0184  -1.2528  0.1408
H       3.5657  -0.2241  1.4271
H       1.0709  -0.8142  1.8028
H       1.4730  0.7195  1.9924
H       -1.5245  -0.3423  -2.0719
