27

Co      0.0000  0.0000  0.0000
Cl      0.0635  -2.4022  -0.1765
Cl      0.0008  2.2242  0.2978
N       -1.4686  0.1162  -1.3998
N       -1.3304  -0.1927  1.2866
N       1.4405  0.1093  -1.3672
N       1.4690  -0.2491  1.4410
C       -2.7065  0.3725  -0.6868
C       -2.6580  -0.4498  0.6000
C       2.8751  0.2835  -0.6101
C       2.9064  -0.4061  0.5224
H       -1.3827  0.9624  -1.9369
H       -2.5688  1.4243  -0.4942
H       -3.5157  -0.3016  -1.1763
H       -3.5361  -0.1691  1.1651
H       -2.8758  -1.5612  0.6730
H       -1.3316  0.8106  1.5646
H       -1.4247  -0.9528  1.9853
H       1.5124  -0.5351  -2.2739
H       1.6072  0.5699  -2.4476
H       3.4199  -0.2094  -1.5176
H       3.7274  1.3790  -0.8010
H       2.7794  -1.5646  0.8521
H       3.4974  -0.1606  1.4846
H       1.0744  -0.9429  2.0678
H       1.7980  0.8066  1.5772
H       -1.5368  -0.7721  -1.8505
