27

Co      0.0000  0.0000  0.0000
Cl      0.1187  -2.3169  -0.1047
Cl      0.0335  2.1596  0.3005
N       -1.4123  0.1269  -1.4796
N       -1.4652  -0.1036  1.4708
N       1.5829  0.1314  -1.3705
N       1.5835  -0.2544  1.3193
C       -2.6729  0.2795  -0.5562
C       -2.7543  -0.4768  0.6046
C       2.7383  0.3969  -0.5639
C       2.7210  -0.5841  0.6838
H       -1.0844  0.7720  -2.1579
H       -2.8552  1.2992  -0.1694
H       -3.7851  0.7010  -1.1143
H       -3.4889  -0.4273  1.4707
H       -3.1081  -1.4675  0.1633
H       -1.6713  0.7204  2.0343
H       -1.2111  -0.9610  1.9511
H       1.7752  -0.7630  -1.8167
H       1.3047  0.6626  -2.2262
H       3.1894  -0.1833  -1.5686
H       3.3851  1.4584  -0.5245
H       2.5459  -1.6111  0.3023
H       3.5169  -0.2235  1.3233
H       1.6759  -0.9001  2.1591
H       1.7481  0.4479  2.0922
H       -1.6258  -1.0815  -1.3893
