27

Co      0.0000  0.0000  0.0000
Cl      -0.0645  -2.2477  -0.2473
Cl      -0.0122  2.3470  0.1936
N       -1.4815  0.1073  -1.2304
N       -1.7086  -0.0254  1.3554
N       1.3192  0.1384  -1.2296
N       1.3696  -0.1717  1.3326
C       -2.8112  0.4144  -0.6120
C       -2.7494  -0.4227  0.8275
C       2.7381  0.5019  -0.5961
C       2.7434  -0.3426  0.6255
H       -1.2412  0.8024  -1.9321
H       -3.1586  1.6138  -1.1115
H       -3.8592  0.4283  -1.1017
H       -3.7887  -0.2506  1.2296
H       -2.7171  -1.4672  0.5492
H       -1.7141  0.5412  2.3723
H       -1.5801  -0.8182  1.9743
H       1.8644  -0.6354  -1.8428
H       1.7835  1.0853  -1.8384
H       3.4912  0.3034  -1.3567
H       2.6948  1.5063  -0.1198
H       2.9684  -1.4183  0.5439
H       3.3117  -0.0032  1.5616
H       1.4534  -1.1447  1.7798
H       1.1323  0.7219  1.8108
H       -1.8090  -0.6200  -1.9543
