27

Co      0.0000  0.0000  0.0000
Cl      0.0860  -2.1852  -0.2318
Cl      0.0811  2.3324  0.2269
N       -1.3235  0.2355  -1.3142
N       -1.4821  -0.0957  1.3053
N       1.5796  0.1043  -1.2897
N       1.4584  -0.1562  1.3627
C       -2.6776  0.4101  -0.6388
C       -2.7218  -0.4662  0.7606
C       2.8414  0.4887  -0.6600
C       2.8833  -0.4195  0.6880
H       -1.5683  0.9415  -2.1371
H       -2.9870  1.5534  -0.8550
H       -3.2030  -0.0347  -1.5998
H       -3.7843  -0.3364  1.1744
H       -3.2617  -1.6388  1.2148
H       -1.3128  0.8261  1.7554
H       -1.1406  -0.5982  2.1699
H       1.2348  -0.8532  -1.6681
H       1.2651  0.6117  -2.1898
H       3.4797  0.2039  -1.5305
H       3.2759  1.4986  -0.3006
H       2.8424  -1.4198  0.2170
H       4.0100  0.0477  0.8511
H       1.0644  -1.2826  1.4719
H       1.4292  0.8504  1.6183
H       -1.5689  -0.5587  -1.9477
