27

Co      0.0000  0.0000  0.0000
Cl      -0.0745  -2.2476  -0.1992
Cl      -0.0560  2.2484  0.2517
N       -1.5309  -0.0013  -1.3785
N       -1.4474  -0.2952  1.2692
N       1.5107  0.1599  -1.2338
N       1.3328  -0.1817  1.4187
C       -2.9753  0.3013  -0.4967
C       -2.7408  -0.4114  0.7200
C       2.8081  0.3106  -0.6586
C       2.5766  -0.4373  0.5783
H       -1.2147  0.8087  -1.8939
H       -2.7429  1.5016  -0.8374
H       -3.7047  0.2385  -1.3685
H       -3.7128  0.0588  1.0776
H       -2.9272  -1.4364  0.4094
H       -1.2922  0.8754  1.2589
H       -1.1332  -0.8976  2.0244
H       1.6533  -0.5402  -2.0272
H       0.6883  0.5809  -2.0866
H       3.6376  -0.1163  -1.2142
H       3.0103  1.2605  0.0009
H       2.9268  -1.4584  0.3207
H       3.4439  -0.3123  1.2343
H       1.2645  -0.9243  2.0955
H       1.6467  0.6539  1.9458
H       -1.0374  -1.1901  -1.3800
