27

Co      0.0000  0.0000  0.0000
Cl      -0.0674  -2.3789  -0.2713
Cl      -0.0287  2.2717  0.2212
N       -1.5489  0.0285  -1.3688
N       -1.5298  -0.2084  1.3922
N       1.4476  0.1006  -1.2304
N       1.3451  -0.0869  1.3253
C       -2.8450  0.2993  -0.5719
C       -2.7643  -0.5175  0.6165
C       2.7245  0.2036  -0.6898
C       2.7586  -0.4060  0.5979
H       -1.0264  0.9236  -1.7743
H       -2.7066  1.3875  -0.4713
H       -3.4458  -0.0731  -1.4683
H       -3.5101  0.3396  1.0899
H       -2.3251  -1.6276  0.6915
H       -1.4363  0.3891  2.3280
H       -1.3681  -1.0324  1.9749
H       2.1521  -0.9662  -1.3507
H       1.3923  0.9515  -1.7713
H       3.6408  -0.2216  -1.1430
H       3.3889  1.2160  -0.4013
H       2.6499  -1.4392  0.3582
H       3.6288  0.4097  0.9323
H       1.3076  -0.6895  2.1982
H       2.0203  0.5388  2.1874
H       -1.6100  -0.6030  -2.2347
