27

Co      0.0000  0.0000  0.0000
Cl      -0.1110  -2.2079  -0.3514
Cl      -0.0631  2.3811  0.1090
N       -1.4856  0.2575  -1.3365
N       -1.6384  0.0435  1.2709
N       1.3882  0.1618  -1.3816
N       1.3260  -0.0132  1.2308
C       -3.0138  0.3928  -0.6828
C       -2.7402  -0.1644  0.6027
C       2.7677  0.5777  -0.5390
C       2.6816  -0.2691  0.5255
H       -1.5394  1.0778  -1.9595
H       -3.2351  1.3986  -0.2528
H       -3.7600  0.0650  -1.3768
H       -3.9723  -0.2925  0.9060
H       -3.0798  -1.2601  0.6511
H       -1.2057  0.7183  2.1584
H       -1.8305  -0.9534  1.7246
H       1.1729  -0.5475  -2.1696
H       1.0629  1.0703  -1.8169
H       3.3993  0.2680  -1.4135
H       2.7953  1.6676  -0.5309
H       3.0420  -1.2950  0.2534
H       3.5249  -0.0012  1.1358
H       1.1349  -0.9845  1.6111
H       1.0925  0.9265  1.6301
H       -1.3986  -0.6477  -1.8188
