27

Co      -0.0336  -0.0330  -0.0566
Cl      -1.0779  1.5806  -1.1978
Cl      1.2114  1.5140  1.4243
C       2.7205  -0.7363  -0.8023
C       2.1813  -1.9929  -0.0568
C       -2.5661  -1.3544  -0.4397
C       -2.5086  -1.2033  1.1112
N       1.5069  0.1066  -1.3474
N       1.1183  -1.4837  0.8170
N       -1.1647  -1.2039  -1.0050
N       -1.5342  -0.0338  1.3542
H       2.9133  -2.6134  0.4611
H       1.7056  -2.6042  -0.8171
H       -3.1013  -0.4844  -0.7998
H       -3.0430  -2.2456  -0.8425
H       1.7416  1.0901  -1.3324
H       1.3244  -0.1239  -2.3097
H       -1.9910  0.8562  1.2781
H       -1.1248  -0.0614  2.2743
H       -2.1595  -2.0710  1.6616
H       -3.4940  -0.9430  1.4856
H       0.5934  -2.2312  1.2382
H       1.5303  -0.9428  1.5705
H       3.2848  -1.0799  -1.6598
H       3.3479  -0.0772  -0.2121
H       -0.7170  -2.1101  -1.0660
H       -1.2387  -0.8400  -1.9403
