27

Co      0.0587  0.0621  0.0227
Cl      -1.0830  1.5824  -1.2098
Cl      1.1233  1.3780  1.3225
C       2.5803  -0.7192  -0.7878
C       2.0666  -1.8324  -0.1338
C       -2.5529  -1.3227  -0.4168
C       -2.4413  -1.1343  1.0270
N       1.5451  0.0197  -1.3115
N       1.1281  -1.4692  0.8660
N       -1.1950  -1.3136  -1.0275
N       -1.4890  -0.1063  1.3179
H       2.9447  -2.2851  0.3121
H       1.6311  -2.5684  -0.7923
H       -3.1681  -0.5797  -0.9111
H       -3.0114  -2.3001  -0.5589
H       1.8339  0.9693  -1.5062
H       1.2160  -0.3620  -2.1816
H       -1.9188  0.7990  1.2336
H       -1.1780  -0.1775  2.2638
H       -2.0865  -2.0630  1.4584
H       -3.4124  -0.9376  1.4571
H       0.6283  -2.2953  1.1383
H       1.5739  -1.1068  1.6857
H       3.3093  -1.0552  -1.5209
H       3.1096  -0.1243  -0.0660
H       -0.8660  -2.2546  -1.0873
H       -1.2905  -0.9708  -1.9658
