27

Co      0.0552  0.0287  0.0316
Cl      -1.0724  1.5839  -1.2041
Cl      1.1101  1.3615  1.3181
C       2.5848  -0.6842  -0.8035
C       2.0138  -1.7983  -0.1364
C       -2.4450  -1.2766  -0.4362
C       -2.3919  -1.1096  1.0522
N       1.5191  0.0079  -1.3231
N       1.0394  -1.3966  0.8156
N       -1.1147  -1.3930  -1.1128
N       -1.5154  -0.0363  1.4336
H       2.9334  -2.2945  0.2001
H       1.4836  -2.4783  -0.7840
H       -2.8836  -0.4493  -0.9775
H       -3.1350  -2.1511  -0.4640
H       1.8362  0.9406  -1.6608
H       1.3722  -0.4937  -2.2171
H       -2.0310  0.8275  1.3641
H       -1.3106  -0.1169  2.4232
H       -1.9668  -1.9862  1.5264
H       -3.4432  -1.0606  1.3656
H       0.5757  -2.2380  1.1145
H       1.6172  -1.1790  1.6391
H       3.4289  -1.1355  -1.3991
H       3.0077  0.0040  -0.0830
H       -0.9737  -2.4077  -1.2414
H       -1.2880  -1.0782  -2.0582
