27

Co      0.0106  0.0558  0.0054
Cl      -1.0517  1.5365  -1.1780
Cl      1.1184  1.3754  1.3119
C       2.5844  -0.7257  -0.8350
C       2.1097  -1.8663  -0.0322
C       -2.4984  -1.3071  -0.4589
C       -2.3894  -1.1337  1.0571
N       1.5010  0.1339  -1.3103
N       1.0821  -1.5374  0.8458
N       -1.1496  -1.3286  -1.0849
N       -1.4779  0.0045  1.3831
H       3.0663  -2.3252  0.2945
H       1.6298  -2.5766  -0.6860
H       -2.9400  -0.4544  -0.9531
H       -3.1648  -2.1717  -0.5737
H       1.8837  1.0677  -1.4592
H       1.4105  -0.1877  -2.2752
H       -2.0236  0.8592  1.4133
H       -1.1740  -0.1182  2.3314
H       -1.9434  -1.9814  1.5703
H       -3.4180  -1.0391  1.4142
H       0.6141  -2.3948  1.1025
H       1.5882  -1.3006  1.7054
H       3.2208  -1.3099  -1.5542
H       3.2186  -0.0254  -0.2924
H       -0.9098  -2.3061  -1.1207
H       -1.2895  -1.0822  -2.0576
