27

Co      -0.0386  -0.0592  -0.0478
Cl      -1.1248  1.6679  -1.2405
Cl      1.2142  1.5136  1.4230
C       2.7170  -0.7394  -0.7498
C       2.1934  -2.0136  -0.0956
C       -2.5614  -1.3207  -0.4301
C       -2.4770  -1.2145  1.0979
N       1.5090  0.0759  -1.3396
N       1.2046  -1.5227  0.8623
N       -1.1599  -1.2587  -0.9924
N       -1.5455  -0.0249  1.3447
H       2.8434  -2.6868  0.4891
H       1.7498  -2.5905  -0.9157
H       -3.1169  -0.4174  -0.6943
H       -2.9949  -2.1942  -0.9728
H       1.6548  1.0831  -1.2518
H       1.1452  -0.1160  -2.2567
H       -1.9381  0.8887  1.1863
H       -1.0690  -0.0001  2.2414
H       -2.1228  -2.1181  1.5702
H       -3.4227  -0.9427  1.5486
H       0.6534  -2.2426  1.2972
H       1.5157  -0.8258  1.5873
H       3.2265  -0.9156  -1.7075
H       3.3705  -0.1621  -0.1082
H       -0.6176  -2.1288  -0.9680
H       -1.1452  -0.8781  -1.9215
