27

Co      -0.0382  -0.0247  -0.0443
Cl      -1.1181  1.6605  -1.2304
Cl      1.2146  1.5216  1.4167
C       2.7039  -0.7570  -0.7812
C       2.2435  -2.0536  -0.0641
C       -2.6015  -1.3257  -0.4567
C       -2.4535  -1.2281  1.0803
N       1.4469  0.0825  -1.2397
N       1.1625  -1.5414  0.7910
N       -1.1685  -1.2704  -0.9312
N       -1.4819  -0.0418  1.2567
H       3.0008  -2.6207  0.4743
H       1.8156  -2.7065  -0.8171
H       -3.0611  -0.4036  -0.8017
H       -3.1348  -2.1755  -0.8925
H       1.6909  1.0676  -1.2285
H       1.2339  -0.1276  -2.1975
H       -1.9663  0.8328  1.1517
H       -1.0758  -0.0172  2.1805
H       -2.0329  -2.1035  1.5576
H       -3.3926  -1.0012  1.5663
H       0.6506  -2.2878  1.2384
H       1.5825  -0.9919  1.5387
H       3.2391  -1.0173  -1.6888
H       3.3380  -0.1116  -0.1800
H       -0.7273  -2.1799  -0.7914
H       -1.1641  -1.0830  -1.9278
