27

Co      0.0000  0.0092  -0.0004
Cl      -1.1194  1.6460  -1.2354
Cl      1.1874  1.4712  1.3879
C       2.7251  -0.7466  -0.7919
C       2.1763  -1.9593  -0.1397
C       -2.5975  -1.3231  -0.4227
C       -2.4685  -1.1945  1.0565
N       1.5675  0.0246  -1.3289
N       1.1653  -1.4907  0.8575
N       -1.2129  -1.3340  -1.0107
N       -1.5456  -0.0693  1.3296
H       2.8581  -2.5262  0.4974
H       1.7777  -2.6341  -0.8891
H       -3.1999  -0.4906  -0.7629
H       -3.0183  -2.2474  -0.8224
H       1.7318  1.0180  -1.3460
H       1.1045  -0.2358  -2.1941
H       -1.9318  0.8466  1.1621
H       -1.1279  -0.0627  2.2448
H       -2.0975  -2.1297  1.4548
H       -3.3967  -0.9625  1.5576
H       0.5885  -2.2419  1.1817
H       1.4784  -0.9157  1.6398
H       3.3111  -0.8909  -1.7038
H       3.3285  -0.2007  -0.0772
H       -0.7307  -2.2240  -0.9997
H       -1.2052  -0.9527  -1.9384
