27

Co      0.0031  0.0152  -0.0175
Cl      -1.0902  1.6146  -1.2119
Cl      1.2016  1.5024  1.4205
C       2.6873  -0.7163  -0.7678
C       2.1245  -1.9438  -0.1519
C       -2.5803  -1.3325  -0.4318
C       -2.4611  -1.1841  1.0488
N       1.5298  0.0051  -1.3732
N       1.1091  -1.4825  0.8422
N       -1.1959  -1.3629  -1.0129
N       -1.5110  -0.0859  1.3335
H       2.7955  -2.5306  0.4824
H       1.7272  -2.5958  -0.9238
H       -3.1725  -0.5001  -0.7854
H       -3.0133  -2.2523  -0.8191
H       1.6760  0.9954  -1.4674
H       1.0670  -0.3356  -2.2141
H       -1.8822  0.8420  1.2079
H       -1.0738  -0.1166  2.2381
H       -2.1244  -2.1267  1.4590
H       -3.3891  -0.9235  1.5354
H       0.5094  -2.2274  1.1395
H       1.4145  -0.9358  1.6410
H       3.3370  -0.8366  -1.6341
H       3.2180  -0.1475  -0.0168
H       -0.7170  -2.2530  -0.9723
H       -1.1840  -1.0143  -1.9510
