27

Co      -0.0291  -0.0223  -0.0661
Cl      -1.0829  1.6086  -1.1933
Cl      1.2104  1.5092  1.4305
C       2.6213  -0.7006  -0.7441
C       2.1247  -1.9670  -0.1409
C       -2.5389  -1.2784  -0.4285
C       -2.4029  -1.1742  1.0543
N       1.4683  0.0465  -1.3268
N       1.1575  -1.5329  0.9090
N       -1.1581  -1.3371  -1.0170
N       -1.4975  -0.0402  1.3061
H       2.8503  -2.5324  0.4325
H       1.7115  -2.6250  -0.8969
H       -3.1040  -0.4133  -0.7514
H       -2.9986  -2.1707  -0.8478
H       1.6162  1.0471  -1.3061
H       1.0519  -0.1963  -2.2125
H       -1.8889  0.8762  1.1513
H       -1.0339  -0.0212  2.2007
H       -2.0068  -2.1046  1.4347
H       -3.3301  -0.9670  1.5677
H       0.6407  -2.2835  1.3206
H       1.4925  -0.8773  1.6381
H       3.2685  -0.7715  -1.6280
H       3.1427  -0.1444  0.0225
H       -0.6760  -2.2270  -0.9221
H       -1.1472  -1.0365  -1.9721
