27

Co      -0.0662  -0.0136  -0.0262
Cl      -1.1003  1.6297  -1.2105
Cl      1.2373  1.5556  1.4471
C       2.7759  -0.7247  -0.8752
C       2.2201  -2.0270  -0.1225
C       -2.6195  -1.3214  -0.4581
C       -2.4245  -1.1871  1.0495
N       1.5401  0.0671  -1.3303
N       1.0710  -1.5475  0.9039
N       -1.2088  -1.3474  -0.9995
N       -1.4704  -0.0573  1.2596
H       2.9861  -2.5433  0.4499
H       1.7668  -2.7404  -0.7967
H       -3.1373  -0.4775  -0.8931
H       -3.1410  -2.2286  -0.7285
H       1.7348  1.0637  -1.3062
H       1.2891  -0.1434  -2.2766
H       -1.9422  0.8246  1.1533
H       -1.0884  -0.0474  2.1913
H       -1.9609  -2.0877  1.4365
H       -3.3422  -1.0265  1.5981
H       0.5957  -2.3457  1.2885
H       1.5208  -1.0737  1.6711
H       3.4747  -0.8884  -1.6925
H       3.2606  -0.0941  -0.1356
H       -0.8309  -2.2826  -0.9271
H       -1.2155  -1.1038  -1.9747
