27

Co      0.0304  -0.0058  0.0433
Cl      -1.0828  1.6144  -1.2110
Cl      1.1275  1.4063  1.3348
C       2.5742  -0.6920  -0.8272
C       2.0351  -1.7969  -0.1188
C       -2.4767  -1.2623  -0.4496
C       -2.3448  -1.1148  1.0223
N       1.5069  0.0268  -1.3052
N       0.9989  -1.4477  0.7998
N       -1.1150  -1.3896  -1.0292
N       -1.4347  -0.0513  1.3128
H       2.9725  -2.2266  0.2606
H       1.5692  -2.5390  -0.7500
H       -2.9029  -0.4336  -0.9977
H       -3.1508  -2.1443  -0.4950
H       1.8190  0.9699  -1.5494
H       1.3754  -0.3894  -2.2280
H       -1.9518  0.8089  1.2128
H       -1.2279  -0.0785  2.3011
H       -1.8817  -1.9983  1.4519
H       -3.3437  -1.0506  1.4390
H       0.5528  -2.3187  1.0542
H       1.5411  -1.2551  1.6592
H       3.3670  -1.1729  -1.4537
H       3.0493  -0.0051  -0.1473
H       -0.9591  -2.3987  -1.0379
H       -1.2157  -1.1735  -2.0107
