27

Co      -0.0304  0.0063  -0.0438
Cl      -1.0940  1.6095  -1.2200
Cl      1.1869  1.4723  1.3862
C       2.6871  -0.7511  -0.8238
C       2.2058  -1.9908  -0.0897
C       -2.5529  -1.3352  -0.4203
C       -2.4877  -1.1720  1.0856
N       1.5197  0.0789  -1.2729
N       1.1505  -1.5336  0.8657
N       -1.1629  -1.2313  -1.0048
N       -1.5195  -0.0700  1.3457
H       3.0291  -2.4616  0.4362
H       1.7804  -2.7223  -0.7585
H       -3.1390  -0.5363  -0.8550
H       -2.9961  -2.2814  -0.7080
H       1.7833  1.0560  -1.2502
H       1.2786  -0.1160  -2.2287
H       -1.9650  0.8276  1.2844
H       -1.1275  -0.1236  2.2701
H       -2.1366  -2.0688  1.5770
H       -3.4666  -0.9395  1.4829
H       0.6794  -2.3242  1.2738
H       1.5871  -1.0182  1.6195
H       3.3122  -1.0078  -1.6660
H       3.2683  -0.1409  -0.1516
H       -0.7437  -2.1457  -1.0429
H       -1.2538  -0.8987  -1.9488
