27

Co      -0.0063  -0.0276  -0.0021
Cl      -1.1010  1.6399  -1.2392
Cl      1.1753  1.4749  1.3857
C       2.7037  -0.7224  -0.8294
C       2.1416  -1.9327  -0.1074
C       -2.5160  -1.3324  -0.4283
C       -2.4802  -1.1615  1.0829
N       1.5349  0.0457  -1.3440
N       1.0471  -1.4709  0.8124
N       -1.1224  -1.2748  -0.9982
N       -1.5011  -0.0801  1.3743
H       2.9016  -2.4560  0.4545
H       1.7120  -2.6263  -0.8129
H       -3.0639  -0.5184  -0.8719
H       -2.9926  -2.2604  -0.7142
H       1.7480  1.0243  -1.4104
H       1.2779  -0.2470  -2.2663
H       -1.9234  0.8255  1.2793
H       -1.1535  -0.1253  2.3160
H       -2.1598  -2.0651  1.5876
H       -3.4657  -0.9150  1.4521
H       0.5138  -2.2596  1.1225
H       1.4576  -1.0527  1.6279
H       3.3657  -1.0204  -1.6252
H       3.2490  -0.0869  -0.1546
H       -0.7425  -2.2024  -1.0702
H       -1.1912  -0.9071  -1.9295
