27

Co      0.0463  0.0010  0.0248
Cl      -1.1229  1.6636  -1.2523
Cl      1.1296  1.4047  1.3280
C       2.6684  -0.7032  -0.8620
C       2.1347  -1.9320  -0.0684
C       -2.5164  -1.3132  -0.4505
C       -2.4418  -1.1629  1.0840
N       1.5070  0.1070  -1.3277
N       1.0516  -1.5276  0.8911
N       -1.1282  -1.3410  -1.0403
N       -1.5045  -0.0359  1.3854
H       3.0325  -2.4479  0.2882
H       1.5990  -2.6053  -0.7264
H       -2.9264  -0.4388  -0.9469
H       -3.1785  -2.1689  -0.6119
H       1.8146  1.0594  -1.4847
H       1.4007  -0.2333  -2.2832
H       -2.0340  0.8191  1.3043
H       -1.2629  -0.0744  2.3687
H       -2.0153  -2.0222  1.5905
H       -3.4633  -1.0476  1.4398
H       0.5599  -2.3624  1.1729
H       1.5998  -1.3007  1.7335
H       3.3914  -1.1474  -1.5614
H       3.1844  0.0034  -0.2279
H       -0.9163  -2.3323  -1.1179
H       -1.2475  -1.0531  -1.9990
