27

Co      -0.0013  0.0247  0.0159
Cl      -1.0874  1.6005  -1.2097
Cl      1.1101  1.3592  1.2995
C       2.6808  -0.7134  -0.8296
C       2.1389  -1.9271  -0.0982
C       -2.4918  -1.2547  -0.4432
C       -2.3934  -1.1683  1.0651
N       1.5195  0.0794  -1.3146
N       1.0779  -1.4820  0.8546
N       -1.0943  -1.2976  -0.9852
N       -1.5099  -0.0122  1.3611
H       2.9209  -2.4507  0.4210
H       1.6901  -2.6203  -0.7963
H       -2.9624  -0.3739  -0.8417
H       -3.0477  -2.1207  -0.7613
H       1.7528  1.0517  -1.3913
H       1.2341  -0.2113  -2.2306
H       -1.9954  0.8587  1.2269
H       -1.1779  -0.0036  2.3049
H       -1.9367  -2.0628  1.4792
H       -3.3687  -1.0574  1.5214
H       0.5502  -2.2732  1.1715
H       1.5057  -1.0738  1.6643
H       3.3180  -1.0122  -1.6481
H       3.2526  -0.0918  -0.1637
H       -0.7358  -2.2311  -0.9313
H       -1.1143  -1.0290  -1.9508
