27

Co      0.0018  0.0239  0.0023
Cl      -1.0445  1.5485  -1.1828
Cl      1.1141  1.3835  1.3184
C       2.6305  -0.6819  -0.8556
C       2.0951  -1.9070  -0.0648
C       -2.4575  -1.2902  -0.4625
C       -2.3939  -1.1304  1.0699
N       1.4568  0.1032  -1.3225
N       0.9647  -1.4715  0.8223
N       -1.0614  -1.2810  -1.0068
N       -1.4344  -0.0287  1.3695
H       2.9706  -2.3832  0.3633
H       1.6127  -2.6197  -0.7173
H       -2.8898  -0.4416  -0.9755
H       -3.0786  -2.1679  -0.6205
H       1.7549  1.0543  -1.4952
H       1.3553  -0.2550  -2.2767
H       -1.9580  0.8361  1.3534
H       -1.1496  -0.1053  2.3277
H       -1.9832  -1.9961  1.5789
H       -3.4076  -0.9929  1.4321
H       0.4686  -2.2939  1.1187
H       1.4947  -1.2291  1.6657
H       3.3582  -1.1112  -1.5550
H       3.1276  0.0327  -0.2159
H       -0.8094  -2.2531  -1.0145
H       -1.1636  -1.0515  -1.9850
