27

Co      -0.0498  0.0077  -0.0282
Cl      -1.0713  1.5773  -1.1917
Cl      1.2117  1.5199  1.4137
C       2.7684  -0.7473  -0.8659
C       2.2354  -2.0224  -0.1267
C       -2.6002  -1.3227  -0.4326
C       -2.4502  -1.1769  1.0541
N       1.5230  0.0495  -1.2681
N       1.0453  -1.4737  0.8115
N       -1.1939  -1.3029  -0.9890
N       -1.4826  -0.0746  1.2868
H       2.8828  -2.4616  0.6941
H       1.9339  -2.8280  -0.8083
H       -3.2328  -0.5249  -0.8035
H       -2.9726  -2.2826  -0.8171
H       1.6596  1.0588  -1.1770
H       1.0374  -0.1008  -2.1630
H       -1.8594  0.8473  1.1361
H       -1.0370  -0.0602  2.1896
H       -2.0837  -2.1181  1.4387
H       -3.3477  -0.9097  1.6002
H       0.4462  -2.2099  1.1369
H       1.3285  -0.8867  1.6067
H       3.3204  -0.7761  -1.8464
H       3.3679  -0.2092  -0.1338
H       -0.6798  -2.1803  -0.9436
H       -1.1730  -0.9514  -1.9290
