27

Co      0.0308  -0.0127  0.0642
Cl      -1.1031  1.6483  -1.2410
Cl      1.1002  1.3542  1.2982
C       2.5986  -0.6805  -0.7791
C       2.0390  -1.8359  -0.0894
C       -2.4716  -1.3007  -0.4733
C       -2.3604  -1.1193  1.0404
N       1.4745  0.0514  -1.3222
N       1.0676  -1.4330  0.8175
N       -1.0973  -1.3370  -1.0365
N       -1.4089  -0.0233  1.3401
H       2.9133  -2.4487  0.2007
H       1.4677  -2.4225  -0.8139
H       -2.8887  -0.4402  -0.9766
H       -3.1375  -2.1624  -0.5971
H       1.7691  0.9945  -1.6044
H       1.3771  -0.4167  -2.2407
H       -1.9219  0.8476  1.3012
H       -1.1597  -0.0963  2.3131
H       -1.9437  -1.9843  1.5512
H       -3.3691  -0.9848  1.4136
H       0.6035  -2.2593  1.1486
H       1.6401  -1.1831  1.6329
H       3.3308  -1.2041  -1.4402
H       3.1175  0.0355  -0.1641
H       -0.8913  -2.3260  -1.0793
H       -1.1879  -1.0674  -1.9984
