27

Co      0.0339  -0.0127  0.0502
Cl      -1.0828  1.6109  -1.2145
Cl      1.1205  1.3853  1.3278
C       2.5862  -0.6757  -0.7533
C       2.0126  -1.8143  -0.1107
C       -2.4934  -1.3010  -0.4628
C       -2.3574  -1.1208  1.0266
N       1.4880  0.0408  -1.3652
N       1.0700  -1.4218  0.8249
N       -1.1345  -1.3660  -1.0582
N       -1.4209  -0.0248  1.3321
H       2.7884  -2.4471  0.3051
H       1.5093  -2.4022  -0.8807
H       -2.9909  -0.4527  -0.8874
H       -3.0717  -2.1824  -0.6875
H       1.7069  1.0020  -1.5874
H       1.2032  -0.4022  -2.2321
H       -1.8568  0.8778  1.2446
H       -1.0931  -0.0796  2.2717
H       -1.9723  -2.0206  1.4890
H       -3.3281  -0.9349  1.4577
H       0.5301  -2.2147  1.1016
H       1.5003  -1.0569  1.6523
H       3.2555  -1.0859  -1.5032
H       3.1500  -0.0290  -0.1108
H       -0.8213  -2.3128  -1.0907
H       -1.1738  -1.0222  -1.9959
