27

Co      0.0556  0.0464  0.0406
Cl      -1.0813  1.5797  -1.2134
Cl      1.0789  1.3149  1.2625
C       2.6338  -0.6871  -0.8546
C       2.1101  -1.9149  -0.0566
C       -2.5255  -1.3246  -0.4620
C       -2.4129  -1.1288  1.0607
N       1.4657  0.1262  -1.2789
N       1.0559  -1.4646  0.8974
N       -1.1345  -1.2645  -1.0382
N       -1.4332  -0.0352  1.3325
H       3.0052  -2.4303  0.2974
H       1.5581  -2.5974  -0.6995
H       -3.0156  -0.5136  -0.9824
H       -3.1067  -2.2387  -0.5766
H       1.7849  1.0721  -1.4645
H       1.3241  -0.2299  -2.2204
H       -1.9545  0.8320  1.2913
H       -1.1791  -0.0997  2.3029
H       -2.0028  -1.9967  1.5699
H       -3.4117  -0.9684  1.4535
H       0.5617  -2.2773  1.2257
H       1.6335  -1.2137  1.7108
H       3.3337  -1.1197  -1.5819
H       3.1717  0.0044  -0.2254
H       -0.8936  -2.2387  -1.1371
H       -1.2594  -0.9459  -1.9862
