27

Co      0.0025  0.0041  -0.0045
Cl      -1.0681  1.5999  -1.2176
Cl      1.1434  1.4349  1.3547
C       2.6187  -0.6906  -0.8347
C       2.1033  -1.9134  -0.0771
C       -2.4566  -1.3247  -0.4446
C       -2.4195  -1.1133  1.0707
N       1.4806  0.1028  -1.3633
N       1.0092  -1.5450  0.8802
N       -1.0939  -1.3450  -1.0788
N       -1.4483  -0.0407  1.4297
H       2.9172  -2.3961  0.4352
H       1.6832  -2.6263  -0.7693
H       -2.9833  -0.5084  -0.9071
H       -2.9946  -2.2343  -0.6668
H       1.7098  1.0724  -1.4367
H       1.1986  -0.1926  -2.2801
H       -1.8637  0.8756  1.4287
H       -1.0606  -0.1743  2.3481
H       -2.1116  -2.0144  1.5852
H       -3.4217  -0.8775  1.4113
H       0.4541  -2.3587  1.0914
H       1.3902  -1.2023  1.7502
H       3.2710  -1.0150  -1.6296
H       3.1794  -0.0491  -0.1809
H       -0.7380  -2.2764  -1.1471
H       -1.1814  -0.9817  -2.0106
