27

Co      -0.0262  -0.0350  0.0004
Cl      -1.0872  1.5975  -1.2038
Cl      1.2061  1.5270  1.4144
C       2.7391  -0.7491  -0.8766
C       2.1729  -1.9181  -0.0876
C       -2.6086  -1.3256  -0.4352
C       -2.4656  -1.1950  1.0569
N       1.5786  0.0700  -1.3463
N       1.0132  -1.4732  0.7773
N       -1.1884  -1.2440  -0.9229
N       -1.4831  -0.0890  1.2374
H       2.9312  -2.3806  0.5447
H       1.8042  -2.6810  -0.7671
H       -3.1698  -0.5144  -0.8652
H       -3.0504  -2.2687  -0.7464
H       1.8077  1.0564  -1.3131
H       1.3376  -0.1289  -2.2981
H       -1.9330  0.7955  1.0731
H       -1.1517  -0.0433  2.1852
H       -2.0618  -2.0967  1.4971
H       -3.3939  -0.9698  1.5597
H       0.4844  -2.2816  1.0497
H       1.3851  -1.0686  1.6220
H       3.3327  -1.1137  -1.7065
H       3.3665  -0.1185  -0.2581
H       -0.7881  -2.1666  -0.9110
H       -1.1989  -0.9464  -1.8821
