27

Co      -0.0627  -0.0268  -0.0164
Cl      -1.0866  1.6057  -1.2105
Cl      1.2200  1.5277  1.4264
C       2.6958  -0.7383  -0.8150
C       2.1679  -1.9394  -0.1128
C       -2.5937  -1.3504  -0.4353
C       -2.4281  -1.1422  1.0352
N       1.5624  0.0731  -1.3498
N       1.1406  -1.5400  0.9028
N       -1.2267  -1.3003  -1.0496
N       -1.4484  -0.0615  1.2829
H       2.8839  -2.4708  0.5113
H       1.7843  -2.6452  -0.8411
H       -3.2776  -0.5888  -0.8196
H       -2.9535  -2.3357  -0.7598
H       1.7241  1.0763  -1.2368
H       1.1470  -0.0844  -2.2602
H       -1.8016  0.8800  1.2062
H       -0.9634  -0.1197  2.1668
H       -2.0924  -2.0769  1.4592
H       -3.3360  -0.8459  1.5508
H       0.6255  -2.3275  1.2290
H       1.4355  -0.9341  1.6828
H       3.2481  -0.9358  -1.7372
H       3.3446  -0.1917  -0.1396
H       -0.7123  -2.1769  -1.0785
H       -1.2321  -0.8779  -1.9628
