27

Co      -0.0106  -0.0739  0.0010
Cl      -1.1030  1.6474  -1.2302
Cl      1.1718  1.4713  1.3788
C       2.6586  -0.7081  -0.7939
C       2.1206  -1.9155  -0.1240
C       -2.5169  -1.2835  -0.4264
C       -2.4014  -1.1492  1.0529
N       1.4922  0.0500  -1.3008
N       1.0663  -1.4486  0.8258
N       -1.1228  -1.2875  -0.9831
N       -1.4519  -0.0534  1.2881
H       2.7902  -2.4431  0.5618
H       1.7592  -2.6270  -0.8642
H       -3.1155  -0.4589  -0.7736
H       -2.9208  -2.2158  -0.8344
H       1.6106  1.0574  -1.2387
H       1.0457  -0.1523  -2.1918
H       -1.8062  0.8752  1.0690
H       -1.0494  0.0040  2.2061
H       -2.0545  -2.0863  1.4650
H       -3.3201  -0.8791  1.5528
H       0.4963  -2.1990  1.1528
H       1.3593  -0.8635  1.6162
H       3.2144  -0.8585  -1.7249
H       3.2785  -0.1612  -0.1006
H       -0.6492  -2.1762  -0.9858
H       -1.0993  -0.8845  -1.9044
