27

Co      0.0025  0.0012  -0.0016
Cl      -1.0681  1.5999  -1.2176
Cl      1.1434  1.4349  1.3547
C       2.5638  -0.7137  -0.7943
C       2.0802  -1.8556  -0.0627
C       -2.4480  -1.3247  -0.4388
C       -2.4138  -1.1133  1.0620
N       1.4951  0.0942  -1.3633
N       1.0554  -1.5566  0.8340
N       -1.1026  -1.3422  -1.0759
N       -1.4541  -0.0378  1.4268
H       2.9316  -2.3326  0.4006
H       1.6860  -2.5598  -0.7779
H       -2.9747  -0.5055  -0.8897
H       -2.9946  -2.2285  -0.6639
H       1.7676  1.0521  -1.4483
H       1.2391  -0.2099  -2.2830
H       -1.8695  0.8785  1.4490
H       -1.0577  -0.1946  2.3394
H       -2.1145  -2.0086  1.5968
H       -3.4275  -0.8746  1.3796
H       0.5177  -2.3905  1.0191
H       1.4075  -1.2167  1.7213
H       3.1641  -1.1652  -1.5833
H       3.2054  -0.0722  -0.2098
H       -0.7409  -2.2706  -1.1298
H       -1.1958  -0.9962  -2.0135
