27

Co      0.0088  0.0439  -0.0029
Cl      -1.0776  1.6120  -1.2168
Cl      1.1494  1.4312  1.3600
C       2.5644  -0.7078  -0.7811
C       2.0940  -1.8974  -0.0677
C       -2.4905  -1.3336  -0.4664
C       -2.4022  -1.1343  1.0508
N       1.4584  0.0732  -1.3269
N       1.0924  -1.5703  0.8428
N       -1.1299  -1.3831  -1.0643
N       -1.4383  -0.0421  1.3850
H       3.0457  -2.4087  0.2198
H       1.5917  -2.5496  -0.7632
H       -2.9085  -0.4748  -0.9832
H       -3.1719  -2.1913  -0.5785
H       1.8123  1.0067  -1.5767
H       1.3744  -0.3492  -2.2621
H       -1.9569  0.8331  1.4703
H       -1.1081  -0.2162  2.3257
H       -2.0187  -1.9976  1.5848
H       -3.4282  -0.9830  1.3825
H       0.6321  -2.4211  1.1240
H       1.6223  -1.3304  1.6878
H       3.2969  -1.2085  -1.4477
H       3.0829  0.0134  -0.1661
H       -0.8898  -2.3616  -1.0386
H       -1.2526  -1.1985  -2.0557
