27

Co      -0.0537  -0.0193  -0.0357
Cl      -1.0916  1.6088  -1.2018
Cl      1.2286  1.5398  1.4408
C       2.7518  -0.7624  -0.8139
C       2.1913  -1.9544  -0.1390
C       -2.5685  -1.2887  -0.4172
C       -2.4586  -1.2082  1.0687
N       1.5917  0.0195  -1.3486
N       1.1102  -1.4857  0.7914
N       -1.1848  -1.3326  -0.9943
N       -1.5797  -0.0479  1.3456
H       2.8565  -2.4731  0.5782
H       1.8564  -2.6744  -0.8799
H       -3.1311  -0.4216  -0.7350
H       -3.0202  -2.1826  -0.8604
H       1.7498  1.0212  -1.2927
H       1.1717  -0.1828  -2.2443
H       -1.9833  0.8537  1.1583
H       -1.1495  -0.0113  2.2577
H       -2.0479  -2.1320  1.4517
H       -3.3956  -1.0260  1.5662
H       0.5464  -2.2465  1.1107
H       1.3816  -0.8891  1.5857
H       3.3206  -0.9275  -1.7279
H       3.3684  -0.2084  -0.1158
H       -0.6944  -2.2234  -0.9342
H       -1.1664  -1.0013  -1.9402
