27

Co      -0.0580  -0.0613  -0.0321
Cl      -1.0884  1.6152  -1.2088
Cl      1.2288  1.5544  1.4369
C       2.7702  -0.7333  -0.8915
C       2.2254  -2.0161  -0.1091
C       -2.5748  -1.3168  -0.4393
C       -2.4454  -1.1685  1.0746
N       1.5026  0.0654  -1.2490
N       1.0064  -1.4516  0.8009
N       -1.1626  -1.2733  -0.9914
N       -1.4674  -0.0631  1.2746
H       2.9551  -2.4574  0.5898
H       1.8419  -2.8042  -0.7525
H       -3.1264  -0.5011  -0.8783
H       -3.0445  -2.2521  -0.7240
H       1.6836  1.0684  -1.1687
H       1.2385  -0.0842  -2.2129
H       -1.9082  0.8284  1.1116
H       -1.1182  -0.0150  2.2198
H       -2.0444  -2.0674  1.5149
H       -3.3800  -0.9508  1.5591
H       0.4999  -2.2187  1.2074
H       1.4313  -0.9472  1.5675
H       3.3989  -0.8859  -1.7660
H       3.3096  -0.1176  -0.1837
H       -0.7787  -2.2037  -1.0209
H       -1.2083  -0.9415  -1.9380
