27

Co      0.0202  0.0424  0.0006
Cl      -1.0954  1.6469  -1.2408
Cl      1.1267  1.3952  1.3255
C       2.5378  -0.7324  -0.7689
C       2.1158  -1.8891  -0.1327
C       -2.4496  -1.2835  -0.4180
C       -2.3942  -1.1118  1.0377
N       1.4587  0.0004  -1.2074
N       1.1169  -1.5264  0.8056
N       -1.0978  -1.3821  -1.0365
N       -1.4616  -0.0839  1.3869
H       3.0181  -2.2429  0.3776
H       1.7686  -2.6939  -0.7742
H       -2.9805  -0.4921  -0.9123
H       -2.9926  -2.2083  -0.5769
H       1.7448  0.9521  -1.3745
H       1.1193  -0.3383  -2.0914
H       -1.8847  0.8263  1.3541
H       -1.1147  -0.1981  2.3205
H       -2.0596  -2.0389  1.4830
H       -3.3919  -0.9292  1.4080
H       0.6249  -2.3517  1.0891
H       1.5367  -1.1442  1.6331
H       3.2342  -0.9804  -1.5508
H       3.0666  -0.1451  -0.0408
H       -0.7772  -2.3254  -0.9988
H       -1.1900  -1.1341  -2.0060
