27

Co      -0.0470  0.0068  -0.0186
Cl      -1.0766  1.6002  -1.2077
Cl      1.1670  1.4452  1.3684
C       2.7305  -0.6973  -0.8536
C       2.1794  -2.0123  -0.1207
C       -2.5107  -1.3017  -0.4522
C       -2.4123  -1.1434  1.0691
N       1.4839  0.0683  -1.2962
N       1.0489  -1.4876  0.8913
N       -1.1126  -1.3048  -1.0314
N       -1.4607  -0.0365  1.3591
H       2.9318  -2.5339  0.4537
H       1.7132  -2.7167  -0.7948
H       -3.0378  -0.4728  -0.8980
H       -3.0216  -2.2143  -0.7122
H       1.6691  1.0568  -1.3356
H       1.2000  -0.1951  -2.2221
H       -1.9121  0.8606  1.2924
H       -1.0781  -0.0810  2.2859
H       -2.0137  -2.0467  1.5073
H       -3.3738  -0.9619  1.5167
H       0.5463  -2.2580  1.2965
H       1.5147  -1.0111  1.6471
H       3.4367  -0.8270  -1.6764
H       3.1948  -0.0727  -0.0982
H       -0.7351  -2.2337  -1.0280
H       -1.1607  -0.9954  -1.9817
