27

Co      0.0018  0.0395  -0.0016
Cl      -1.0665  1.5886  -1.2057
Cl      1.1383  1.4154  1.3488
C       2.5847  -0.7234  -0.7919
C       2.0734  -1.8370  -0.1389
C       -2.4631  -1.2789  -0.4142
C       -2.4208  -1.1344  1.0409
N       1.5409  -0.0018  -1.3349
N       1.0573  -1.4964  0.7971
N       -1.0938  -1.3192  -0.9789
N       -1.4918  -0.0983  1.3720
H       2.9397  -2.2396  0.3779
H       1.7122  -2.6110  -0.8023
H       -3.0127  -0.4953  -0.9027
H       -2.9584  -2.2184  -0.6122
H       1.8117  0.9531  -1.4996
H       1.2487  -0.3652  -2.2239
H       -1.9238  0.8046  1.3161
H       -1.1517  -0.1863  2.3073
H       -2.0700  -2.0624  1.4752
H       -3.4129  -0.9621  1.4279
H       0.5633  -2.3384  1.0376
H       1.4570  -1.1441  1.6484
H       3.3230  -1.0561  -1.5127
H       3.0921  -0.1132  -0.0690
H       -0.7474  -2.2550  -0.9351
H       -1.1589  -1.0717  -1.9490
