27

Co      -0.0051  -0.0598  -0.0184
Cl      -1.1163  1.6464  -1.2260
Cl      1.2247  1.5368  1.4407
C       2.7146  -0.7278  -0.7917
C       2.1399  -1.9315  -0.1434
C       -2.5940  -1.3174  -0.4189
C       -2.4607  -1.1877  1.0632
N       1.5606  0.0299  -1.3528
N       1.1289  -1.4574  0.8543
N       -1.2187  -1.3335  -1.0348
N       -1.5423  -0.0593  1.3094
H       2.8054  -2.5204  0.4975
H       1.7273  -2.5900  -0.9001
H       -3.1957  -0.4793  -0.7485
H       -3.0244  -2.2369  -0.8198
H       1.6935  1.0351  -1.3206
H       1.1316  -0.2047  -2.2354
H       -1.9154  0.8579  1.0810
H       -1.1424  -0.0008  2.2337
H       -2.0868  -2.1152  1.4686
H       -3.3880  -0.9537  1.5607
H       0.5687  -2.2060  1.2051
H       1.4414  -0.8500  1.6201
H       3.3142  -0.8825  -1.6864
H       3.3026  -0.1735  -0.0738
H       -0.7596  -2.2341  -1.0885
H       -1.2264  -0.8976  -1.9449
