27

Co      -0.0572  -0.0217  -0.0437
Cl      -1.0946  1.6286  -1.2077
Cl      1.1885  1.4881  1.4016
C       2.6873  -0.7279  -0.7978
C       2.1539  -1.9468  -0.1269
C       -2.5087  -1.2342  -0.4184
C       -2.4159  -1.2112  1.0669
N       1.5634  0.0579  -1.4032
N       1.1034  -1.5784  0.8780
N       -1.0909  -1.2875  -0.9006
N       -1.5448  -0.0445  1.3221
H       2.8696  -2.4692  0.5029
H       1.8026  -2.6491  -0.8780
H       -3.0280  -0.3356  -0.7246
H       -2.9565  -2.1065  -0.9298
H       1.7161  1.0617  -1.3109
H       1.1809  -0.1271  -2.3170
H       -1.9626  0.8506  1.1294
H       -1.0982  0.0159  2.2250
H       -1.9779  -2.1421  1.4180
H       -3.3464  -1.0524  1.5930
H       0.5757  -2.3722  1.1766
H       1.3759  -1.0013  1.6829
H       3.2970  -0.9043  -1.6763
H       3.2666  -0.1642  -0.0865
H       -0.5776  -2.1670  -0.7048
H       -1.0129  -1.0662  -1.8840
