27

Co      0.0609  -0.0063  0.0146
Cl      -1.1031  1.6476  -1.2334
Cl      1.1072  1.3748  1.3094
C       2.6075  -0.6801  -0.7988
C       2.0953  -1.9251  -0.1025
C       -2.4612  -1.2575  -0.4437
C       -2.3858  -1.1533  1.0711
N       1.4250  0.0677  -1.2766
N       1.0305  -1.4643  0.8347
N       -1.0714  -1.3733  -1.0202
N       -1.4826  -0.0219  1.3812
H       2.8753  -2.4386  0.4243
H       1.6557  -2.6159  -0.8096
H       -2.8846  -0.3508  -0.8428
H       -3.0784  -2.0923  -0.7499
H       1.6345  1.0381  -1.4286
H       1.0963  -0.2855  -2.1621
H       -1.9401  0.8602  1.2105
H       -1.1845  -0.0016  2.3389
H       -1.9796  -2.0521  1.5127
H       -3.3732  -1.0082  1.4826
H       0.4451  -2.2306  1.1152
H       1.4527  -1.0990  1.6683
H       3.2688  -0.9170  -1.6143
H       3.1337  -0.0506  -0.1054
H       -0.7675  -2.3245  -1.0021
H       -1.1125  -1.0838  -1.9792
