27

Co      -0.0457  -0.0292  -0.0315
Cl      -1.0692  1.5922  -1.1941
Cl      1.2001  1.5003  1.4127
C       2.6440  -0.7037  -0.8045
C       2.1326  -1.9458  -0.1057
C       -2.5238  -1.3129  -0.4532
C       -2.3860  -1.1302  1.0503
N       1.4661  0.0691  -1.2925
N       1.0840  -1.4955  0.8609
N       -1.1566  -1.3331  -1.0696
N       -1.4337  -0.0278  1.3170
H       2.9295  -2.4688  0.4043
H       1.6804  -2.6337  -0.8039
H       -3.0588  -0.4860  -0.8896
H       -3.0594  -2.2213  -0.6834
H       1.6823  1.0515  -1.3239
H       1.2168  -0.1920  -2.2262
H       -1.8741  0.8748  1.2612
H       -1.0390  -0.0815  2.2364
H       -1.9932  -2.0244  1.5074
H       -3.3455  -0.9333  1.4964
H       0.6112  -2.2835  1.2603
H       1.5267  -1.0000  1.6196
H       3.3077  -0.9477  -1.6170
H       3.1759  -0.0750  -0.1110
H       -0.7943  -2.2677  -1.0825
H       -1.2239  -1.0182  -2.0186
