27

Co      -0.0053  -0.0175  -0.0086
Cl      -1.1323  1.6789  -1.2448
Cl      1.2072  1.5161  1.4096
C       2.7642  -0.7291  -0.8740
C       2.2301  -2.0368  -0.1184
C       -2.6062  -1.3131  -0.4458
C       -2.4463  -1.1973  1.0687
N       1.5109  0.0639  -1.2719
N       1.0707  -1.5216  0.8772
N       -1.1955  -1.3740  -1.0085
N       -1.5089  -0.0578  1.2979
H       2.9903  -2.5267  0.4830
H       1.7920  -2.7707  -0.7826
H       -3.0870  -0.4412  -0.8643
H       -3.1639  -2.1934  -0.7369
H       1.7091  1.0562  -1.2827
H       1.2109  -0.1600  -2.2010
H       -1.9787  0.8178  1.1225
H       -1.1822  -0.0081  2.2541
H       -1.9972  -2.0966  1.4695
H       -3.3839  -1.0420  1.5778
H       0.5402  -2.2974  1.2321
H       1.5151  -1.0823  1.6647
H       3.4326  -0.8678  -1.7229
H       3.2706  -0.1097  -0.1415
H       -0.8542  -2.3212  -0.9830
H       -1.2220  -1.0932  -1.9720
