27

Co      0.0227  0.0473  -0.0044
Cl      -1.0979  1.6494  -1.2433
Cl      1.1291  1.3976  1.3304
C       2.5378  -0.7299  -0.7763
C       2.1109  -1.8842  -0.1278
C       -2.4349  -1.2835  -0.4156
C       -2.3991  -1.1093  1.0475
N       1.4808  0.0176  -1.2467
N       1.1267  -1.5632  0.8473
N       -1.1027  -1.4189  -1.0856
N       -1.4960  -0.0643  1.4433
H       3.0303  -2.2503  0.3432
H       1.7440  -2.6718  -0.7717
H       -2.9486  -0.4774  -0.9050
H       -3.0171  -2.1887  -0.5622
H       1.7743  0.9668  -1.4089
H       1.1488  -0.3212  -2.1331
H       -1.9240  0.8435  1.4301
H       -1.1417  -0.2055  2.3745
H       -2.0596  -2.0291  1.5002
H       -3.4189  -0.9562  1.3834
H       0.6347  -2.4032  1.0965
H       1.5392  -1.2031  1.6896
H       3.2440  -1.0050  -1.5410
H       3.0666  -0.1377  -0.0531
H       -0.7993  -2.3696  -1.0822
H       -1.2170  -1.1439  -2.0453
