27

Co      -0.0139  0.0008  -0.0023
Cl      -1.0908  1.5891  -1.1895
Cl      1.1937  1.4798  1.4008
C       2.7149  -0.7140  -0.8236
C       2.1298  -1.9222  -0.1171
C       -2.6224  -1.3047  -0.4523
C       -2.4176  -1.1961  1.0408
N       1.5675  0.0662  -1.3795
N       1.1148  -1.4867  0.8959
N       -1.2256  -1.3161  -0.9949
N       -1.5041  -0.0416  1.2479
H       2.9071  -2.5215  0.3472
H       1.6228  -2.5573  -0.8375
H       -3.1404  -0.4470  -0.8523
H       -3.1501  -2.1983  -0.7404
H       1.7932  1.0466  -1.4447
H       1.3252  -0.2338  -2.2990
H       -1.9925  0.8282  1.0920
H       -1.1641  0.0017  2.1916
H       -1.9264  -2.0899  1.4250
H       -3.3464  -1.0695  1.5896
H       0.6311  -2.2855  1.2622
H       1.5704  -1.0341  1.6665
H       3.4053  -1.0258  -1.5966
H       3.2464  -0.0786  -0.1326
H       -0.8659  -2.2556  -0.9545
H       -1.2364  -1.0406  -1.9594
