27

Co      -0.0025  0.0043  0.0045
Cl      -1.1170  1.6435  -1.2330
Cl      1.1849  1.4687  1.3830
C       2.7297  -0.7445  -0.8072
C       2.1857  -1.9733  -0.1265
C       -2.6122  -1.3322  -0.4388
C       -2.4682  -1.1970  1.0558
N       1.5273  0.0165  -1.2670
N       1.1328  -1.4449  0.8022
N       -1.1989  -1.2791  -0.9571
N       -1.4976  -0.0889  1.2641
H       2.9411  -2.5188  0.4274
H       1.7342  -2.6562  -0.8325
H       -3.1592  -0.5054  -0.8610
H       -3.0845  -2.2579  -0.7373
H       1.7567  0.9942  -1.3661
H       1.2475  -0.2892  -2.1750
H       -1.9561  0.7976  1.1223
H       -1.1644  -0.0689  2.2135
H       -2.0657  -2.1032  1.4920
H       -3.4060  -0.9854  1.5459
H       0.6240  -2.2085  1.2152
H       1.5939  -0.9611  1.5562
H       3.3874  -0.9753  -1.6320
H       3.2695  -0.1264  -0.1058
H       -0.8130  -2.2070  -0.9344
H       -1.2281  -0.9927  -1.9173
