27

Co      -0.0672  -0.0208  -0.0226
Cl      -1.0689  1.5907  -1.2049
Cl      1.2054  1.5144  1.4231
C       2.7657  -0.6994  -0.8484
C       2.1502  -1.9715  -0.1442
C       -2.5380  -1.3317  -0.4328
C       -2.4596  -1.1513  1.0633
N       1.5679  0.0485  -1.4251
N       1.0239  -1.4944  0.8990
N       -1.1361  -1.2692  -0.9967
N       -1.4705  -0.0825  1.3479
H       2.7877  -2.5361  0.5604
H       1.7519  -2.6625  -0.8773
H       -3.1955  -0.5575  -0.8273
H       -2.8789  -2.3104  -0.8085
H       1.6614  1.0611  -1.3678
H       1.1433  -0.1768  -2.3163
H       -1.8176  0.8612  1.2537
H       -0.9991  -0.1308  2.2391
H       -2.1524  -2.0983  1.4887
H       -3.3820  -0.8524  1.5404
H       0.4604  -2.2580  1.2102
H       1.3280  -0.9252  1.6904
H       3.4285  -0.7819  -1.7227
H       3.2720  -0.1299  -0.0791
H       -0.6119  -2.1423  -1.0135
H       -1.1203  -0.8533  -1.9111
