27

Co      -0.0276  -0.0739  0.0131
Cl      -1.1030  1.6474  -1.2302
Cl      1.1718  1.4737  1.3788
C       2.6683  -0.7033  -0.8060
C       2.1109  -1.8985  -0.1192
C       -2.5338  -1.2883  -0.4337
C       -2.3917  -1.1492  1.0384
N       1.5262  0.0645  -1.3566
N       1.0615  -1.4850  0.8647
N       -1.1276  -1.2656  -0.9492
N       -1.4228  -0.0631  1.2493
H       2.7902  -2.4455  0.5327
H       1.7350  -2.5955  -0.8666
H       -3.1519  -0.4807  -0.7930
H       -2.9062  -2.2401  -0.8393
H       1.6421  1.0744  -1.2678
H       1.1039  -0.1256  -2.2573
H       -1.7771  0.8679  1.0495
H       -1.0057  -0.0129  2.1600
H       -2.0351  -2.0912  1.4359
H       -3.2910  -0.8694  1.5770
H       0.5133  -2.2620  1.1625
H       1.3495  -0.9217  1.6696
H       3.2338  -0.9021  -1.7152
H       3.2930  -0.1490  -0.1249
H       -0.6347  -2.1471  -0.9179
H       -1.0726  -0.8845  -1.8777
