27

Co      0.0067  0.0203  0.0230
Cl      -1.0734  1.6034  -1.2214
Cl      1.0955  1.3447  1.2881
C       2.5348  -0.6916  -0.7798
C       2.0766  -1.8774  -0.0533
C       -2.4523  -1.3206  -0.4679
C       -2.3623  -1.0904  1.0435
N       1.4195  0.1008  -1.2614
N       1.1008  -1.5145  0.8584
N       -1.0860  -1.2841  -1.0521
N       -1.3669  -0.0282  1.3462
H       3.0250  -2.3884  0.2291
H       1.5532  -2.5382  -0.7318
H       -2.9343  -0.5133  -1.0012
H       -3.0562  -2.2287  -0.5592
H       1.7598  1.0396  -1.4563
H       1.3280  -0.2712  -2.2125
H       -1.8641  0.8604  1.4167
H       -1.0451  -0.1859  2.2861
H       -2.0018  -1.9577  1.5937
H       -3.3772  -0.8950  1.3837
H       0.6702  -2.3530  1.2126
H       1.6626  -1.2214  1.6609
H       3.2204  -1.1910  -1.4882
H       3.0973  0.0073  -0.1850
H       -0.8275  -2.2502  -1.0874
H       -1.2140  -1.0269  -2.0181
