27

Co      0.0018  0.0312  -0.0016
Cl      -1.0582  1.5691  -1.1862
Cl      1.1244  1.3904  1.3321
C       2.5681  -0.7095  -0.7919
C       2.0540  -1.8203  -0.1361
C       -2.4492  -1.2372  -0.4197
C       -2.3735  -1.1344  1.0353
N       1.5298  0.0177  -1.3321
N       1.0545  -1.4853  0.8166
N       -1.0827  -1.3303  -0.9845
N       -1.4946  -0.0594  1.3553
H       2.9230  -2.2340  0.3613
H       1.6760  -2.5859  -0.7995
H       -2.9598  -0.4174  -0.8805
H       -2.9890  -2.1433  -0.6344
H       1.7950  0.9754  -1.4773
H       1.2404  -0.3318  -2.2267
H       -1.9516  0.8269  1.2493
H       -1.1712  -0.0944  2.2962
H       -1.9531  -2.0540  1.4279
H       -3.3601  -1.0289  1.4641
H       0.5716  -2.3273  1.0738
H       1.4625  -1.1218  1.6567
H       3.3007  -1.0477  -1.5154
H       3.0810  -0.1020  -0.0718
H       -0.7585  -2.2745  -0.9101
H       -1.1310  -1.1051  -1.9630
