27

Co      -0.0022  -0.0277  -0.0159
Cl      -1.0983  1.6209  -1.2149
Cl      1.2172  1.5404  1.4255
C       2.7594  -0.7198  -0.8715
C       2.2217  -2.0442  -0.0539
C       -2.6277  -1.3664  -0.4723
C       -2.4580  -1.1949  1.0809
N       1.4658  0.1301  -1.3052
N       1.0296  -1.5082  0.8441
N       -1.2201  -1.3508  -1.0496
N       -1.4666  -0.0259  1.3011
H       2.9275  -2.6108  0.5546
H       1.7731  -2.7177  -0.7758
H       -3.1105  -0.4750  -0.8529
H       -3.1877  -2.2323  -0.8106
H       1.6646  1.1224  -1.2952
H       1.1923  -0.0860  -2.2452
H       -1.9258  0.8601  1.1903
H       -1.0912  -0.0224  2.2356
H       -2.0588  -2.0692  1.5698
H       -3.3962  -0.9533  1.5581
H       0.4274  -2.2512  1.1578
H       1.4248  -1.0779  1.6642
H       3.3079  -0.9633  -1.7792
H       3.3757  -0.0626  -0.2612
H       -0.8379  -2.2808  -1.0816
H       -1.2550  -1.0089  -1.9944
