27

Co      0.0025  0.0049  -0.0049
Cl      -1.0908  1.6144  -1.2180
Cl      1.1596  1.4418  1.3654
C       2.6704  -0.7036  -0.8510
C       2.1344  -1.9391  -0.0774
C       -2.5128  -1.3167  -0.4556
C       -2.4296  -1.1527  1.0793
N       1.5023  0.0957  -1.3304
N       1.0568  -1.5171  0.8790
N       -1.1367  -1.3363  -1.0653
N       -1.4951  -0.0257  1.3859
H       3.0283  -2.4620  0.2843
H       1.5980  -2.6066  -0.7381
H       -2.9403  -0.4532  -0.9563
H       -3.1702  -2.1798  -0.5987
H       1.8088  1.0501  -1.4791
H       1.4207  -0.2433  -2.2933
H       -2.0266  0.8332  1.3545
H       -1.2127  -0.0967  2.3519
H       -1.9985  -2.0085  1.5866
H       -3.4507  -1.0418  1.4359
H       0.5984  -2.3477  1.2195
H       1.6152  -1.2338  1.6866
H       3.4141  -1.1244  -1.5407
H       3.1599  0.0069  -0.1978
H       -0.9075  -2.3228  -1.1298
H       -1.2677  -1.0636  -2.0283
