27

Co      0.0063  0.0267  0.0025
Cl      -1.0531  1.5695  -1.1914
Cl      1.1228  1.3969  1.3247
C       2.5809  -0.6812  -0.8189
C       2.1014  -1.9206  -0.0750
C       -2.4828  -1.2999  -0.4632
C       -2.3547  -1.1094  1.0384
N       1.4221  0.1093  -1.2938
N       1.0220  -1.5267  0.8770
N       -1.1074  -1.3511  -1.0521
N       -1.3871  -0.0256  1.3375
H       2.9242  -2.3874  0.4381
H       1.6863  -2.6508  -0.7584
H       -2.9962  -0.4727  -0.9154
H       -3.0324  -2.2020  -0.6805
H       1.6573  1.0778  -1.3822
H       1.1101  -0.1870  -2.2010
H       -1.8248  0.8807  1.3155
H       -1.0023  -0.1174  2.2534
H       -1.9821  -2.0138  1.4954
H       -3.3165  -0.9004  1.4805
H       0.4738  -2.3256  1.1328
H       1.4250  -1.1613  1.7232
H       3.2136  -0.9610  -1.6464
H       3.1492  -0.0516  -0.1587
H       -0.7545  -2.2812  -1.0218
H       -1.1540  -1.0687  -2.0127
