27

Co      -0.0007  0.0020  0.0120
Cl      -1.1111  1.6518  -1.2445
Cl      1.1394  1.4106  1.3358
C       2.6233  -0.7361  -0.8137
C       2.1331  -1.8938  -0.0598
C       -2.4823  -1.3073  -0.4467
C       -2.4223  -1.1511  1.0753
N       1.5215  0.0885  -1.3101
N       1.1233  -1.5489  0.8390
N       -1.1173  -1.3225  -1.0452
N       -1.5024  -0.0213  1.4002
H       3.0724  -2.4000  0.2496
H       1.6274  -2.5604  -0.7390
H       -2.9021  -0.4379  -0.9374
H       -3.1452  -2.1631  -0.6051
H       1.8744  1.0314  -1.4532
H       1.4627  -0.2389  -2.2822
H       -2.0339  0.8376  1.3950
H       -1.2130  -0.1200  2.3620
H       -2.0045  -2.0027  1.6059
H       -3.4612  -1.0389  1.3963
H       0.6900  -2.4060  1.1536
H       1.6544  -1.2701  1.6655
H       3.2963  -1.2840  -1.5132
H       3.2124  -0.0334  -0.2392
H       -0.8761  -2.3030  -1.0829
H       -1.2463  -1.0734  -2.0156
