27

Co      -0.0057  -0.0408  -0.0112
Cl      -1.0699  1.5806  -1.1908
Cl      1.1792  1.4786  1.3937
C       2.6747  -0.7061  -0.7963
C       2.1006  -1.8993  -0.1308
C       -2.5387  -1.2910  -0.4258
C       -2.4250  -1.1655  1.0538
N       1.5151  0.0374  -1.3449
N       1.0369  -1.4118  0.7976
N       -1.1435  -1.2782  -0.9764
N       -1.4816  -0.0623  1.2931
H       2.7477  -2.4415  0.5765
H       1.7419  -2.6031  -0.8793
H       -3.1451  -0.4677  -0.7678
H       -2.9328  -2.2249  -0.8416
H       1.6396  1.0393  -1.3368
H       1.0662  -0.2164  -2.2187
H       -1.8469  0.8608  1.0799
H       -1.0793  -0.0094  2.2095
H       -2.0716  -2.1028  1.4609
H       -3.3448  -0.9049  1.5569
H       0.4389  -2.1523  1.1042
H       1.3209  -0.8454  1.5992
H       3.2583  -0.8693  -1.7007
H       3.2704  -0.1477  -0.0919
H       -0.6614  -2.1645  -0.9732
H       -1.1223  -0.8855  -1.9016
