27

Co      0.0587  0.0612  0.0231
Cl      -1.0603  1.5678  -1.2094
Cl      1.1070  1.3711  1.3118
C       2.5377  -0.6971  -0.8168
C       2.0445  -1.8248  -0.0972
C       -2.4968  -1.3489  -0.4330
C       -2.4403  -1.0949  1.0365
N       1.4871  0.0450  -1.2991
N       1.0352  -1.4790  0.8399
N       -1.1340  -1.2861  -1.0319
N       -1.4150  -0.1213  1.3435
H       3.0240  -2.2192  0.2544
H       1.5801  -2.5881  -0.7055
H       -3.0659  -0.6349  -1.0434
H       -3.0174  -2.3364  -0.4274
H       1.8438  0.9735  -1.5728
H       1.3387  -0.3838  -2.2138
H       -1.8829  0.7779  1.3804
H       -1.1529  -0.2824  2.3053
H       -2.1361  -1.9963  1.5659
H       -3.4560  -0.8732  1.3600
H       0.5747  -2.3426  1.0918
H       1.5848  -1.2840  1.6949
H       3.3386  -1.1636  -1.4464
H       3.0112  -0.0169  -0.1307
H       -0.9052  -2.2626  -1.1409
H       -1.3039  -0.9887  -1.9844
