27

Co      0.0056  -0.0704  -0.0477
Cl      -1.0828  1.6093  -1.1960
Cl      1.1991  1.5256  1.4195
C       2.6235  -0.7076  -0.8276
C       2.1313  -1.9357  -0.0846
C       -2.5366  -1.2726  -0.4286
C       -2.4219  -1.1849  1.0739
N       1.4501  0.0887  -1.2858
N       1.0050  -1.4895  0.8021
N       -1.1202  -1.2737  -0.9381
N       -1.4736  -0.0604  1.2522
H       2.9275  -2.3703  0.5129
H       1.7633  -2.7022  -0.7608
H       -3.0236  -0.4009  -0.8250
H       -3.0535  -2.1569  -0.7802
H       1.6665  1.0780  -1.2498
H       1.2068  -0.1061  -2.2410
H       -1.9266  0.8183  1.0315
H       -1.1515  0.0375  2.2039
H       -2.0073  -2.0806  1.5100
H       -3.3688  -0.9898  1.5494
H       0.4811  -2.2748  1.1322
H       1.3936  -1.0389  1.6138
H       3.2481  -0.9736  -1.6611
H       3.1908  -0.0778  -0.1642
H       -0.7567  -2.2082  -0.8894
H       -1.1474  -1.0198  -1.9132
