27

Co      -0.0075  -0.0687  -0.0130
Cl      -1.1001  1.6234  -1.2202
Cl      1.2120  1.5275  1.4221
C       2.7569  -0.7060  -0.8749
C       2.1759  -1.9895  -0.1172
C       -2.6003  -1.3436  -0.4373
C       -2.4696  -1.1628  1.0746
N       1.4991  0.0647  -1.2771
N       1.0160  -1.4068  0.8418
N       -1.1892  -1.2540  -1.0081
N       -1.4612  -0.0818  1.2605
H       2.8911  -2.5047  0.5238
H       1.7220  -2.7162  -0.7801
H       -3.1911  -0.5551  -0.8845
H       -3.0358  -2.3046  -0.6999
H       1.6642  1.0657  -1.2572
H       1.2204  -0.1484  -2.2169
H       -1.8826  0.8198  1.0655
H       -1.1442  -0.0210  2.2179
H       -2.1036  -2.0671  1.5354
H       -3.4018  -0.9042  1.5499
H       0.4927  -2.1580  1.2594
H       1.4745  -0.9118  1.5927
H       3.4256  -0.8611  -1.7190
H       3.2621  -0.0864  -0.1453
H       -0.8218  -2.1887  -1.1330
H       -1.2554  -0.8342  -1.9243
