27

Co      -0.0043  -0.0328  0.0032
Cl      -1.1161  1.6524  -1.2424
Cl      1.1875  1.4858  1.3840
C       2.7435  -0.7175  -0.8696
C       2.2104  -2.0210  -0.1099
C       -2.6038  -1.3512  -0.4448
C       -2.4553  -1.1549  1.0623
N       1.4784  0.0704  -1.2294
N       1.0616  -1.4567  0.8670
N       -1.1907  -1.2748  -1.0078
N       -1.4332  -0.0845  1.2586
H       2.9567  -2.5104  0.5090
H       1.7632  -2.7640  -0.7617
H       -3.1953  -0.5701  -0.9062
H       -3.0426  -2.3169  -0.6860
H       1.6656  1.0652  -1.2220
H       1.1713  -0.1372  -2.1627
H       -1.8566  0.8213  1.1154
H       -1.0966  -0.0664  2.2070
H       -2.0940  -2.0650  1.5179
H       -3.3811  -0.8873  1.5505
H       0.5419  -2.2140  1.2783
H       1.5280  -0.9738  1.6216
H       3.3893  -0.8493  -1.7419
H       3.2696  -0.1099  -0.1451
H       -0.8150  -2.2043  -1.0865
H       -1.2471  -0.8930  -1.9362
