27

Co      -0.0576  -0.0705  -0.0142
Cl      -1.0913  1.6356  -1.2223
Cl      1.1816  1.4772  1.3866
C       2.7479  -0.6869  -0.8224
C       2.1799  -2.0354  -0.0860
C       -2.5168  -1.3135  -0.4746
C       -2.4047  -1.1609  1.0841
N       1.4261  0.0914  -1.2873
N       1.0363  -1.4378  0.8291
N       -1.0888  -1.2498  -0.9893
N       -1.4113  -0.0110  1.3063
H       2.8462  -2.6799  0.4982
H       1.6802  -2.6446  -0.8407
H       -3.0024  -0.4269  -0.8560
H       -3.0318  -2.1891  -0.8543
H       1.5690  1.0942  -1.2854
H       1.1958  -0.1561  -2.2345
H       -1.8581  0.8864  1.1991
H       -1.0185  0.0020  2.2327
H       -2.0195  -2.0421  1.5789
H       -3.3495  -0.9127  1.5398
H       0.5079  -2.1602  1.3019
H       1.4937  -0.8949  1.5586
H       3.3555  -0.8637  -1.7043
H       3.2826  -0.0299  -0.1553
H       -0.6741  -2.1656  -0.9802
H       -1.0956  -0.9258  -1.9367
