27

Co      0.0672  0.0252  0.0231
Cl      -1.1025  1.6321  -1.2422
Cl      1.1126  1.3824  1.3009
C       2.6159  -0.7205  -0.8387
C       2.1608  -1.9502  -0.0647
C       -2.5224  -1.3333  -0.4392
C       -2.4328  -1.1316  1.0662
N       1.4369  0.1047  -1.2142
N       1.0604  -1.4999  0.8398
N       -1.1502  -1.3485  -1.0706
N       -1.4559  -0.0501  1.3716
H       2.9780  -2.3705  0.5028
H       1.7718  -2.7241  -0.7200
H       -3.0557  -0.5174  -0.8879
H       -3.0547  -2.2480  -0.6607
H       1.6963  1.0689  -1.2971
H       1.0763  -0.1590  -2.1166
H       -1.8815  0.8546  1.2854
H       -1.1276  -0.1129  2.3153
H       -2.1052  -2.0340  1.5637
H       -3.4140  -0.8882  1.4540
H       0.4609  -2.2764  1.0763
H       1.4558  -1.1502  1.6995
H       3.1788  -0.9937  -1.7250
H       3.2543  -0.1143  -0.2098
H       -0.8148  -2.2853  -1.1597
H       -1.2453  -0.9677  -1.9992
