27

Co      -0.0276  -0.0687  0.0132
Cl      -1.1204  1.6608  -1.2466
Cl      1.1917  1.4988  1.3925
C       2.7698  -0.7151  -0.8675
C       2.1835  -1.9760  -0.1274
C       -2.5954  -1.3300  -0.4279
C       -2.4538  -1.1612  1.0556
N       1.5559  0.0717  -1.3353
N       1.0540  -1.4726  0.9004
N       -1.1751  -1.2394  -0.9615
N       -1.4473  -0.0899  1.2479
H       2.8255  -2.5086  0.5990
H       1.7922  -2.7050  -0.8337
H       -3.2704  -0.5645  -0.8116
H       -2.9056  -2.3270  -0.8139
H       1.6491  1.0933  -1.1945
H       1.1078  -0.0636  -2.2456
H       -1.7915  0.8458  1.0301
H       -1.0401  -0.0275  2.1678
H       -2.1190  -2.1083  1.4597
H       -3.3411  -0.8446  1.6026
H       0.4924  -2.2294  1.2345
H       1.3687  -0.8875  1.6811
H       3.3479  -0.8052  -1.8097
H       3.3622  -0.1730  -0.1412
H       -0.6686  -2.1184  -1.0173
H       -1.1430  -0.7797  -1.8639
