27

Co      0.0541  0.0319  0.0509
Cl      -1.1162  1.6533  -1.2533
Cl      1.1159  1.3662  1.3035
C       2.6447  -0.7071  -0.8241
C       2.1194  -1.9068  -0.1566
C       -2.5248  -1.3186  -0.4304
C       -2.4083  -1.1014  1.0328
N       1.4966  0.0057  -1.2136
N       1.0996  -1.4228  0.8706
N       -1.1753  -1.3891  -1.1043
N       -1.4599  -0.0781  1.3609
H       2.9395  -2.3561  0.3757
H       1.6656  -2.6613  -0.7868
H       -3.1108  -0.5665  -0.9418
H       -3.0388  -2.2808  -0.5228
H       1.7239  0.9700  -1.4028
H       1.1030  -0.3591  -2.0739
H       -1.8744  0.8344  1.2508
H       -1.1739  -0.1394  2.3214
H       -2.0527  -2.0308  1.4572
H       -3.3799  -0.9162  1.4564
H       0.5782  -2.2119  1.1996
H       1.5860  -1.0399  1.6596
H       3.3777  -0.8732  -1.6135
H       3.1249  -0.1289  -0.0423
H       -0.8965  -2.3489  -1.2350
H       -1.2860  -0.9761  -2.0173
