27

Co      -0.0470  0.0068  -0.0186
Cl      -1.0766  1.6002  -1.2077
Cl      1.1670  1.4452  1.3684
C       2.7260  -0.7018  -0.8309
C       2.1749  -2.0033  -0.1389
C       -2.5107  -1.2927  -0.4386
C       -2.4077  -1.1434  1.0600
N       1.5021  0.0592  -1.3188
N       1.0716  -1.4967  0.9049
N       -1.1217  -1.3230  -1.0360
N       -1.4743  -0.0365  1.3681
H       2.8366  -2.5339  0.5581
H       1.7812  -2.7167  -0.8537
H       -3.1104  -0.4728  -0.8073
H       -2.9309  -2.2234  -0.8120
H       1.6147  1.0659  -1.2812
H       1.0276  -0.1589  -2.1995
H       -1.8486  0.8923  1.2561
H       -1.0146  -0.0674  2.2632
H       -2.0454  -2.0830  1.4529
H       -3.3375  -0.9120  1.5530
H       0.5009  -2.2398  1.2556
H       1.3967  -0.9067  1.6743
H       3.3505  -0.7181  -1.7581
H       3.2538  -0.1544  -0.0574
H       -0.6307  -2.2065  -1.0098
H       -1.1108  -0.9455  -1.9636
