27

Co      -0.0506  -0.0268  -0.0507
Cl      -1.0779  1.5806  -1.1978
Cl      1.2114  1.5165  1.4243
C       2.7605  -0.7163  -0.8590
C       2.1802  -1.9911  -0.1248
C       -2.5750  -1.3234  -0.4123
C       -2.4935  -1.1799  1.0829
N       1.5780  0.0872  -1.3991
N       1.0765  -1.5176  0.9391
N       -1.1666  -1.2098  -0.9785
N       -1.5263  -0.0799  1.3207
H       2.8539  -2.5218  0.5609
H       1.7800  -2.7095  -0.8296
H       -3.2525  -0.5460  -0.7793
H       -2.8841  -2.3081  -0.8294
H       1.7011  1.1029  -1.2486
H       1.1731  -0.0470  -2.3228
H       -1.8926  0.8476  1.1586
H       -1.0708  -0.0613  2.2209
H       -2.1556  -2.1179  1.4995
H       -3.4161  -0.8997  1.5746
H       0.5383  -2.2812  1.2960
H       1.3886  -0.8957  1.7000
H       3.3886  -0.8041  -1.7612
H       3.3083  -0.1639  -0.1063
H       -0.6288  -2.0796  -1.0207
H       -1.1711  -0.7756  -1.8892
