27

Co      0.0106  0.0652  -0.0010
Cl      -1.0427  1.5425  -1.1810
Cl      1.1124  1.3754  1.3149
C       2.5343  -0.7080  -0.8409
C       2.0697  -1.8298  -0.0814
C       -2.4427  -1.2803  -0.4380
C       -2.3737  -1.0982  1.0407
N       1.5015  0.0824  -1.3075
N       1.0327  -1.5494  0.8603
N       -1.1012  -1.3533  -1.0699
N       -1.4583  -0.0440  1.3974
H       3.0836  -2.1737  0.2694
H       1.6393  -2.6290  -0.6727
H       -2.9165  -0.4883  -1.0076
H       -3.0812  -2.1892  -0.4590
H       1.8760  1.0132  -1.4963
H       1.3778  -0.2690  -2.2543
H       -1.9756  0.8260  1.4357
H       -1.1733  -0.1919  2.3502
H       -1.9600  -1.9784  1.5152
H       -3.4083  -1.0136  1.3809
H       0.6000  -2.4437  1.0833
H       1.5496  -1.3560  1.7345
H       3.2995  -1.2045  -1.4864
H       3.0475  -0.0296  -0.1841
H       -0.8953  -2.3412  -1.0872
H       -1.2560  -1.1392  -2.0513
