27

Co      0.0063  0.0336  -0.0009
Cl      -1.0668  1.5900  -1.1948
Cl      1.1330  1.4037  1.3384
C       2.6026  -0.6732  -0.8142
C       2.1025  -1.9434  -0.0843
C       -2.4999  -1.2918  -0.4802
C       -2.3558  -1.1368  1.0440
N       1.4108  0.0842  -1.2848
N       1.0335  -1.5108  0.8668
N       -1.1052  -1.3603  -1.0236
N       -1.4009  -0.0256  1.3148
H       3.0023  -2.4593  0.2721
H       1.5772  -2.6131  -0.7542
H       -2.8962  -0.4145  -0.9856
H       -3.1779  -2.1416  -0.6184
H       1.7083  1.0345  -1.5086
H       1.2962  -0.3157  -2.2203
H       -1.9396  0.8353  1.3073
H       -1.1035  -0.0968  2.2692
H       -1.8990  -2.0049  1.5088
H       -3.3425  -1.0256  1.4750
H       0.5671  -2.3266  1.2250
H       1.6080  -1.2348  1.6686
H       3.3717  -1.0254  -1.5065
H       3.0457  0.0403  -0.1277
H       -0.8760  -2.3427  -0.9475
H       -1.1834  -1.2076  -2.0274
