27

Co      0.0082  0.0721  0.0038
Cl      -1.0623  1.5801  -1.2014
Cl      1.1341  1.4049  1.3404
C       2.5837  -0.7222  -0.7566
C       2.0962  -1.8895  -0.0944
C       -2.5052  -1.3227  -0.4516
C       -2.4148  -1.1515  1.0374
N       1.4820  0.0359  -1.3342
N       1.0960  -1.5260  0.7927
N       -1.1267  -1.3442  -0.9958
N       -1.4488  -0.0690  1.3597
H       2.9253  -2.4014  0.3732
H       1.6935  -2.5681  -0.8320
H       -3.0130  -0.4859  -0.8924
H       -3.0437  -2.2182  -0.7096
H       1.7651  0.9845  -1.5486
H       1.1947  -0.3724  -2.2105
H       -1.8964  0.8348  1.3892
H       -1.0507  -0.2118  2.2711
H       -2.0707  -2.0603  1.5169
H       -3.3943  -0.9318  1.4397
H       0.5475  -2.3312  1.0335
H       1.4853  -1.1708  1.6494
H       3.2339  -1.0953  -1.5337
H       3.1602  -0.0793  -0.1166
H       -0.7414  -2.2645  -0.8947
H       -1.1629  -1.1351  -1.9799
