27

Co      -0.0067  -0.0307  -0.0210
Cl      -1.1100  1.6297  -1.2321
Cl      1.1813  1.4794  1.3868
C       2.7630  -0.7113  -0.8926
C       2.1850  -1.9930  -0.0977
C       -2.5786  -1.3290  -0.4209
C       -2.5101  -1.1901  1.0966
N       1.5646  0.1077  -1.3737
N       1.0486  -1.5190  0.9376
N       -1.1490  -1.1964  -0.9490
N       -1.5221  -0.0901  1.3111
H       2.9533  -2.5077  0.4605
H       1.7130  -2.7082  -0.7589
H       -3.1659  -0.5316  -0.8607
H       -2.9831  -2.2881  -0.7429
H       1.7614  1.1032  -1.3087
H       1.3255  -0.0732  -2.3354
H       -1.9635  0.8018  1.1447
H       -1.1844  -0.0526  2.2603
H       -2.1407  -2.0953  1.5578
H       -3.4649  -0.9555  1.5423
H       0.5451  -2.3141  1.2902
H       1.4912  -1.0669  1.7198
H       3.4521  -0.9361  -1.7002
H       3.2739  -0.0856  -0.1773
H       -0.7419  -2.1163  -1.0269
H       -1.2008  -0.8150  -1.8780
