27

Co      -0.0273  0.0108  -0.0642
Cl      -1.0701  1.5792  -1.1805
Cl      1.1975  1.4853  1.4158
C       2.6452  -0.7080  -0.7496
C       2.1265  -1.9633  -0.1446
C       -2.5389  -1.2766  -0.4248
C       -2.4250  -1.1889  1.0599
N       1.4959  0.0355  -1.3507
N       1.1484  -1.5164  0.8870
N       -1.1507  -1.3169  -0.9931
N       -1.5288  -0.0476  1.3282
H       2.8374  -2.5324  0.4472
H       1.7207  -2.6214  -0.9042
H       -3.1040  -0.4096  -0.7440
H       -2.9857  -2.1689  -0.8644
H       1.6529  1.0306  -1.3668
H       1.0739  -0.2386  -2.2254
H       -1.9311  0.8634  1.1826
H       -1.0670  -0.0378  2.2228
H       -2.0270  -2.1212  1.4384
H       -3.3595  -0.9927  1.5640
H       0.6113  -2.2633  1.2783
H       1.4760  -0.8810  1.6289
H       3.3016  -0.7917  -1.6225
H       3.1611  -0.1480  0.0188
H       -0.6539  -2.2013  -0.8799
H       -1.1343  -1.0329  -1.9537
