27

Co      0.0170  -0.0023  -0.0151
Cl      -1.0710  1.5985  -1.1991
Cl      1.1373  1.4118  1.3468
C       2.6095  -0.6805  -0.7879
C       2.0950  -1.9323  -0.1115
C       -2.4576  -1.2610  -0.4487
C       -2.3736  -1.1431  1.0664
N       1.4203  0.0563  -1.2792
N       1.0357  -1.4539  0.8226
N       -1.0798  -1.3686  -1.0452
N       -1.4732  -0.0117  1.3817
H       2.8711  -2.4527  0.4204
H       1.6547  -2.6172  -0.8213
H       -2.8986  -0.3652  -0.8522
H       -3.0700  -2.1032  -0.7366
H       1.6287  1.0287  -1.4229
H       1.1163  -0.2955  -2.1722
H       -1.9327  0.8743  1.2608
H       -1.1344  -0.0239  2.3222
H       -1.9628  -2.0384  1.5088
H       -3.3607  -1.0023  1.4786
H       0.4836  -2.2158  1.1618
H       1.4681  -1.0321  1.6213
H       3.2914  -0.8940  -1.5936
H       3.1092  -0.0471  -0.0753
H       -0.7587  -2.3150  -1.0141
H       -1.1327  -1.0943  -2.0085
