27

Co      -0.0675  0.0127  -0.0069
Cl      -1.0940  1.6172  -1.2207
Cl      1.1939  1.4936  1.3890
C       2.7859  -0.7494  -0.8885
C       2.2426  -2.0130  -0.1138
C       -2.5806  -1.3182  -0.4343
C       -2.4438  -1.1729  1.0540
N       1.5837  0.0828  -1.3429
N       1.0705  -1.5672  0.8982
N       -1.1756  -1.3070  -0.9870
N       -1.4894  -0.0631  1.3215
H       2.9247  -2.4729  0.6306
H       1.9116  -2.7947  -0.8005
H       -3.2077  -0.5196  -0.8140
H       -2.9577  -2.2763  -0.8165
H       1.7284  1.0921  -1.2031
H       1.1266  -0.0351  -2.2562
H       -1.8712  0.8588  1.2130
H       -1.0235  -0.0877  2.2162
H       -2.0674  -2.1132  1.4346
H       -3.3503  -0.9270  1.5921
H       0.5011  -2.3510  1.1602
H       1.3430  -1.0256  1.7243
H       3.3387  -0.8536  -1.8456
H       3.4090  -0.2069  -0.1828
H       -0.6531  -2.1814  -0.9295
H       -1.1375  -0.9565  -1.9260
