27

Co      -0.0138  0.0014  0.0437
Cl      -1.1111  1.6525  -1.2521
Cl      1.1324  1.3875  1.3247
C       2.7054  -0.7041  -0.8173
C       2.1237  -1.9190  -0.1168
C       -2.4930  -1.3275  -0.4534
C       -2.4092  -1.1170  1.0583
N       1.5445  0.0569  -1.3454
N       1.1181  -1.4762  0.9027
N       -1.1392  -1.3500  -1.1103
N       -1.4735  -0.0187  1.4219
H       2.8910  -2.5349  0.3332
H       1.5940  -2.5314  -0.8415
H       -3.0323  -0.5112  -0.9049
H       -3.0374  -2.2388  -0.6529
H       1.7530  1.0295  -1.4679
H       1.2596  -0.2895  -2.2442
H       -1.9062  0.8901  1.3920
H       -1.1106  -0.1301  2.3542
H       -2.0457  -2.0142  1.5416
H       -3.4020  -0.9311  1.4392
H       0.6136  -2.2718  1.2401
H       1.5809  -1.0584  1.6889
H       3.3804  -1.0092  -1.6045
H       3.2476  -0.0765  -0.1343
H       -0.8000  -2.2908  -1.2263
H       -1.2197  -0.9284  -2.0194
