27

Co      -0.0690  -0.0530  -0.0248
Cl      -1.1045  1.6347  -1.2182
Cl      1.2345  1.5451  1.4485
C       2.7890  -0.7096  -0.8365
C       2.1749  -1.9919  -0.1589
C       -2.5942  -1.3164  -0.4339
C       -2.4431  -1.1760  1.0573
N       1.5801  0.0433  -1.3909
N       1.1033  -1.4921  0.9334
N       -1.1953  -1.2989  -1.0116
N       -1.4996  -0.0601  1.2912
H       2.8165  -2.6020  0.4991
H       1.7256  -2.6465  -0.8977
H       -3.2251  -0.5060  -0.7931
H       -2.9766  -2.2669  -0.8236
H       1.6693  1.0644  -1.2951
H       1.1709  -0.1490  -2.2940
H       -1.8747  0.8634  1.1119
H       -1.0547  -0.0230  2.1982
H       -2.0508  -2.1121  1.4319
H       -3.3453  -0.9410  1.6049
H       0.5887  -2.2490  1.3399
H       1.4516  -0.8487  1.6632
H       3.4523  -0.7622  -1.7210
H       3.2931  -0.1520  -0.0515
H       -0.6991  -2.1873  -1.0203
H       -1.1696  -0.8890  -1.9290
