27

Co      -0.0025  -0.0080  0.0050
Cl      -1.0949  1.6035  -1.2101
Cl      1.1607  1.4369  1.3526
C       2.7462  -0.7155  -0.8524
C       2.1882  -1.9916  -0.1289
C       -2.5899  -1.2985  -0.4331
C       -2.4255  -1.1696  1.0532
N       1.5130  0.0698  -1.2732
N       1.0723  -1.4381  0.8780
N       -1.1813  -1.2838  -0.9941
N       -1.4808  -0.0529  1.2731
H       2.8318  -2.5049  0.6113
H       1.8043  -2.7352  -0.8253
H       -3.2150  -0.4886  -0.7858
H       -2.9696  -2.2490  -0.8246
H       1.6313  1.0800  -1.2059
H       1.0126  -0.1098  -2.1556
H       -1.8632  0.8625  1.0436
H       -1.0856  0.0225  2.1952
H       -2.0291  -2.1095  1.4198
H       -3.3214  -0.9299  1.6193
H       0.4755  -2.1646  1.2314
H       1.3991  -0.8509  1.6480
H       3.3140  -0.7523  -1.8209
H       3.3358  -0.1841  -0.1108
H       -0.6997  -2.1708  -1.0010
H       -1.1565  -0.8728  -1.9136
