27

Co      0.0746  0.0648  0.0025
Cl      -1.0682  1.5748  -1.1923
Cl      1.1128  1.3740  1.3207
C       2.5475  -0.7009  -0.7597
C       2.0599  -1.8653  -0.0857
C       -2.4850  -1.2820  -0.4454
C       -2.3958  -1.1608  1.0562
N       1.4590  0.0678  -1.3325
N       1.0825  -1.5055  0.8209
N       -1.1352  -1.4297  -1.0766
N       -1.5229  -0.0125  1.4206
H       2.8954  -2.3851  0.3552
H       1.6316  -2.5309  -0.8204
H       -2.9075  -0.3694  -0.8356
H       -3.1467  -2.0992  -0.7162
H       1.7444  1.0124  -1.5747
H       1.1360  -0.3603  -2.1935
H       -1.9984  0.8658  1.3474
H       -1.1878  -0.0849  2.3580
H       -1.9869  -2.0510  1.5119
H       -3.4054  -1.0411  1.4388
H       0.4821  -2.2968  1.0145
H       1.4658  -1.1943  1.7000
H       3.1903  -1.0815  -1.5383
H       3.1326  -0.0592  -0.1251
H       -0.8322  -2.3808  -1.0387
H       -1.2044  -1.1724  -2.0460
