27

Co      0.0633  -0.0142  0.0161
Cl      -1.1008  1.6236  -1.2294
Cl      1.1054  1.3704  1.2976
C       2.6249  -0.6975  -0.8772
C       2.1283  -1.9186  -0.0431
C       -2.4684  -1.2837  -0.4454
C       -2.4076  -1.1355  1.0964
N       1.4551  0.1462  -1.2555
N       1.0194  -1.4869  0.8684
N       -1.1054  -1.3466  -1.1038
N       -1.5090  0.0127  1.4213
H       3.0329  -2.3680  0.3622
H       1.6282  -2.6495  -0.6664
H       -2.8646  -0.3973  -0.9257
H       -3.1689  -2.1209  -0.5917
H       1.7698  1.0990  -1.3615
H       1.3205  -0.1341  -2.2240
H       -2.0396  0.8623  1.3014
H       -1.2883  0.0002  2.4105
H       -1.9692  -1.9816  1.6134
H       -3.4498  -1.0488  1.4209
H       0.5033  -2.3054  1.1480
H       1.5500  -1.2510  1.7159
H       3.2779  -1.1400  -1.6320
H       3.2033  -0.0078  -0.2784
H       -0.9249  -2.3466  -1.2532
H       -1.2669  -0.9975  -2.0430
