27

Co      0.0078  0.0253  0.0009
Cl      -1.0469  1.5475  -1.1887
Cl      1.1096  1.3650  1.3163
C       2.6270  -0.6620  -0.8385
C       2.0622  -1.8951  -0.0739
C       -2.4427  -1.3112  -0.4601
C       -2.4093  -1.1105  1.0797
N       1.4754  0.1098  -1.3723
N       1.0095  -1.4733  0.8990
N       -1.0733  -1.2828  -1.0804
N       -1.4547  -0.0161  1.4295
H       2.9444  -2.4535  0.2590
H       1.4937  -2.5311  -0.7464
H       -2.9068  -0.4828  -0.9822
H       -3.0611  -2.2007  -0.5778
H       1.7668  1.0585  -1.5750
H       1.3882  -0.2903  -2.3184
H       -1.9658  0.8603  1.4540
H       -1.1556  -0.1442  2.3817
H       -2.0287  -1.9723  1.6206
H       -3.4485  -0.9675  1.3866
H       0.5379  -2.2965  1.2310
H       1.5776  -1.2076  1.7081
H       3.4065  -1.0973  -1.4962
H       3.0822  0.0575  -0.1722
H       -0.8314  -2.2588  -1.1924
H       -1.2221  -0.9599  -2.0243
