27

Co      -0.0457  -0.0200  -0.0320
Cl      -1.1003  1.6262  -1.2140
Cl      1.2303  1.5321  1.4401
C       2.7032  -0.7397  -0.7754
C       2.1742  -1.9701  -0.1451
C       -2.5939  -1.3285  -0.4315
C       -2.4343  -1.1696  1.0463
N       1.5353  0.0243  -1.3077
N       1.1797  -1.4968  0.8674
N       -1.2287  -1.3495  -1.0596
N       -1.5049  -0.0518  1.3081
H       2.8668  -2.5403  0.4788
H       1.7675  -2.6390  -0.8934
H       -3.2138  -0.5087  -0.7796
H       -3.0228  -2.2601  -0.7926
H       1.6892  1.0251  -1.2796
H       1.1025  -0.2036  -2.1913
H       -1.8821  0.8736  1.1811
H       -1.0447  -0.0685  2.2060
H       -2.0605  -2.0994  1.4472
H       -3.3548  -0.9309  1.5574
H       0.6564  -2.2474  1.2706
H       1.5103  -0.8451  1.6021
H       3.3006  -0.8476  -1.6887
H       3.2855  -0.1936  -0.0435
H       -0.7440  -2.2402  -1.0540
H       -1.2382  -0.9669  -1.9861
