27

Co      -0.0492  -0.0144  -0.0394
Cl      -1.1115  1.6655  -1.2393
Cl      1.2040  1.5055  1.4176
C       2.7350  -0.6881  -0.7956
C       2.1940  -2.0795  -0.0918
C       -2.5734  -1.3515  -0.4733
C       -2.4560  -1.1961  1.0812
N       1.4520  0.0944  -1.3693
N       1.1202  -1.5801  0.9437
N       -1.1316  -1.2713  -0.9587
N       -1.4344  -0.0567  1.3017
H       2.9272  -2.7630  0.3605
H       1.6454  -2.6349  -0.8669
H       -3.0662  -0.4666  -0.8660
H       -3.0728  -2.2324  -0.8635
H       1.6286  1.0881  -1.4099
H       1.2486  -0.1968  -2.3078
H       -1.8912  0.8438  1.2786
H       -0.9900  -0.1098  2.2091
H       -2.0861  -2.0873  1.5706
H       -3.3957  -0.9299  1.5468
H       0.6223  -2.3337  1.3966
H       1.5963  -1.0561  1.6724
H       3.4286  -0.8518  -1.6156
H       3.1971  -0.0155  -0.0837
H       -0.6840  -2.1773  -0.8617
H       -1.1245  -1.0339  -1.9345
