27

Co      0.0075  0.0804  0.0096
Cl      -1.0850  1.6200  -1.2304
Cl      1.1163  1.3761  1.3157
C       2.5759  -0.7279  -0.8166
C       2.1076  -1.8727  -0.1085
C       -2.4519  -1.2956  -0.4328
C       -2.4160  -1.1240  1.0475
N       1.5242  0.0302  -1.3037
N       1.0900  -1.5740  0.8505
N       -1.0912  -1.3587  -1.0232
N       -1.4845  -0.0814  1.4175
H       3.1127  -2.2527  0.2245
H       1.6609  -2.6366  -0.7225
H       -2.9124  -0.4955  -1.0078
H       -3.0804  -2.2020  -0.4838
H       1.8970  0.9582  -1.5531
H       1.4014  -0.3731  -2.2341
H       -2.0007  0.7916  1.4783
H       -1.1946  -0.2526  2.3731
H       -2.0286  -2.0142  1.5292
H       -3.4555  -1.0221  1.3677
H       0.6676  -2.4642  1.1047
H       1.6309  -1.3693  1.7065
H       3.3827  -1.1777  -1.4441
H       3.0406  -0.0476  -0.1219
H       -0.8670  -2.3420  -0.9902
H       -1.2274  -1.1901  -2.0183
