27

Co      0.0144  -0.0204  -0.0509
Cl      -1.1120  1.6373  -1.2142
Cl      1.2275  1.5493  1.4434
C       2.6662  -0.7387  -0.8201
C       2.1851  -1.9832  -0.0967
C       -2.6173  -1.3141  -0.4286
C       -2.4670  -1.2155  1.0720
N       1.4978  0.0744  -1.2901
N       1.1132  -1.5482  0.8558
N       -1.2177  -1.3405  -0.9895
N       -1.5360  -0.0689  1.2716
H       3.0083  -2.4533  0.4338
H       1.7726  -2.7130  -0.7783
H       -3.1080  -0.4363  -0.8216
H       -3.1640  -2.1903  -0.7516
H       1.7508  1.0551  -1.2964
H       1.2436  -0.1473  -2.2303
H       -2.0099  0.8025  1.0934
H       -1.1969  -0.0127  2.2205
H       -2.0301  -2.1074  1.4960
H       -3.4161  -1.0475  1.5580
H       0.6027  -2.3380  1.2034
H       1.5292  -1.0874  1.6467
H       3.3117  -0.9859  -1.6455
H       3.2224  -0.1136  -0.1371
H       -0.8603  -2.2817  -0.9455
H       -1.2661  -1.0916  -1.9656
