27

Co      -0.0194  0.0043  0.0166
Cl      -1.1170  1.6435  -1.2330
Cl      1.1849  1.4712  1.3830
C       2.7348  -0.7442  -0.7967
C       2.1715  -1.9472  -0.1398
C       -2.6292  -1.3280  -0.4324
C       -2.4539  -1.1970  1.0321
N       1.5794  0.0220  -1.3455
N       1.1507  -1.4903  0.8546
N       -1.2128  -1.2754  -0.9277
N       -1.4821  -0.0986  1.2344
H       2.8458  -2.5212  0.5026
H       1.7780  -2.6246  -0.8939
H       -3.2682  -0.5272  -0.7896
H       -2.9792  -2.2913  -0.8420
H       1.7338  1.0202  -1.3407
H       1.1333  -0.2263  -2.2178
H       -1.8634  0.8221  1.0666
H       -1.0573  -0.0723  2.1448
H       -2.0781  -2.1443  1.4085
H       -3.3406  -0.9258  1.6064
H       0.5956  -2.2534  1.1841
H       1.4662  -0.9150  1.6368
H       3.3206  -0.9100  -1.7040
H       3.3430  -0.1959  -0.0892
H       -0.6941  -2.1507  -0.8484
H       -1.1515  -0.9428  -1.8725
