27

Co      0.0220  0.0578  0.0087
Cl      -1.0832  1.5920  -1.2055
Cl      1.1059  1.3462  1.2911
C       2.5951  -0.7435  -0.7686
C       2.1382  -1.9053  -0.0844
C       -2.4915  -1.2667  -0.4407
C       -2.3846  -1.1619  1.0540
N       1.4746  0.0604  -1.2314
N       1.1544  -1.4867  0.7886
N       -1.1277  -1.3483  -1.0332
N       -1.5152  -0.0038  1.3780
H       2.9712  -2.3889  0.4006
H       1.7321  -2.6128  -0.7920
H       -2.9511  -0.3767  -0.8282
H       -3.0939  -2.1139  -0.7304
H       1.7727  1.0124  -1.3758
H       1.1657  -0.2659  -2.1278
H       -2.0028  0.8689  1.2961
H       -1.1680  -0.0491  2.3127
H       -1.9463  -2.0501  1.4945
H       -3.3782  -1.0473  1.4738
H       0.6179  -2.2715  1.1022
H       1.5644  -1.0702  1.6032
H       3.1664  -1.0976  -1.6158
H       3.2450  -0.1334  -0.1556
H       -0.7808  -2.2841  -0.9650
H       -1.1829  -1.1068  -2.0079
