27

Co      -0.0082  -0.0690  -0.0040
Cl      -1.1055  1.6498  -1.2326
Cl      1.1743  1.4738  1.3837
C       2.6586  -0.7057  -0.8012
C       2.1157  -1.9106  -0.1191
C       -2.5021  -1.2835  -0.4239
C       -2.4063  -1.1468  1.0628
N       1.5143  0.0671  -1.3400
N       1.0762  -1.4854  0.8676
N       -1.1277  -1.3243  -1.0322
N       -1.4863  -0.0338  1.3446
H       2.8025  -2.4505  0.5274
H       1.7347  -2.6049  -0.8617
H       -3.0836  -0.4442  -0.7663
H       -2.9453  -2.1962  -0.8197
H       1.6401  1.0721  -1.2731
H       1.0751  -0.1351  -2.2335
H       -1.8455  0.8924  1.1450
H       -1.0764  -0.0033  2.2601
H       -2.0545  -2.0765  1.4822
H       -3.3471  -0.9061  1.5282
H       0.5061  -2.2505  1.1601
H       1.3617  -0.9224  1.6726
H       3.2242  -0.8830  -1.7151
H       3.2785  -0.1538  -0.1129
H       -0.6713  -2.2203  -1.0693
H       -1.1263  -0.8943  -1.9436
