27

Co      0.0351  0.0268  0.0645
Cl      -1.0873  1.6203  -1.2467
Cl      1.0934  1.3509  1.2914
C       2.6175  -0.7072  -0.7966
C       2.0543  -1.8212  -0.0817
C       -2.4537  -1.3487  -0.4446
C       -2.4336  -1.1041  1.0556
N       1.5466  0.0632  -1.3972
N       1.0594  -1.4803  0.8279
N       -1.1082  -1.3332  -1.0847
N       -1.4579  -0.0499  1.4581
H       2.8513  -2.3897  0.3638
H       1.5977  -2.4594  -0.8258
H       -3.0097  -0.5579  -0.9139
H       -2.9730  -2.2765  -0.6388
H       1.8010  1.0138  -1.5953
H       1.2509  -0.3465  -2.2733
H       -1.8607  0.8751  1.4835
H       -1.0992  -0.2327  2.3844
H       -2.1638  -2.0083  1.6060
H       -3.4523  -0.8455  1.3547
H       0.4822  -2.3008  0.9854
H       1.4374  -1.1944  1.7264
H       3.2379  -1.1929  -1.5620
H       3.2505  -0.0639  -0.2083
H       -0.7588  -2.2635  -1.2198
H       -1.2005  -0.9012  -1.9907
