27

Co      -0.0339  0.0143  -0.0537
Cl      -1.0903  1.6201  -1.2035
Cl      1.1842  1.4751  1.3932
C       2.6610  -0.7303  -0.7999
C       2.1809  -1.9918  -0.1093
C       -2.5171  -1.2553  -0.4353
C       -2.4175  -1.2049  1.0736
N       1.4859  0.0566  -1.2973
N       1.1110  -1.5626  0.8446
N       -1.1066  -1.3228  -0.9469
N       -1.5307  -0.0390  1.3328
H       3.0008  -2.4710  0.4129
H       1.7736  -2.7081  -0.8060
H       -2.9528  -0.3412  -0.8192
H       -3.0935  -2.0964  -0.8019
H       1.7327  1.0336  -1.3384
H       1.2444  -0.2006  -2.2340
H       -2.0277  0.8262  1.2146
H       -1.1546  -0.0230  2.2641
H       -1.9529  -2.0989  1.4761
H       -3.3865  -1.0951  1.5409
H       0.6253  -2.3569  1.2204
H       1.5353  -1.0876  1.6234
H       3.3384  -0.9484  -1.6085
H       3.1741  -0.1010  -0.0904
H       -0.7240  -2.2529  -0.7740
H       -1.1169  -1.1795  -1.9563
