27

Co      0.0074  -0.0344  -0.0487
Cl      -1.0699  1.5799  -1.1832
Cl      1.1862  1.5017  1.4048
C       2.7023  -0.6918  -0.8735
C       2.1563  -1.9898  -0.1028
C       -2.5453  -1.2708  -0.4307
C       -2.4497  -1.1996  1.0881
N       1.4632  0.0863  -1.3097
N       0.9496  -1.4614  0.8263
N       -1.1042  -1.2564  -0.9171
N       -1.4990  -0.0706  1.2772
H       2.9002  -2.4338  0.5622
H       1.7696  -2.7650  -0.7594
H       -3.0322  -0.4001  -0.8349
H       -3.0407  -2.1608  -0.7996
H       1.6454  1.0817  -1.2989
H       1.1884  -0.1310  -2.2510
H       -1.9631  0.8026  1.0425
H       -1.1875  0.0412  2.2346
H       -2.0246  -2.1029  1.5021
H       -3.3925  -1.0184  1.5775
H       0.3882  -2.2228  1.1621
H       1.3597  -1.0281  1.6335
H       3.3881  -0.8436  -1.7018
H       3.1832  -0.0583  -0.1390
H       -0.7318  -2.1882  -0.8645
H       -1.1201  -1.0016  -1.8920
