27

Co      0.0492  0.0188  0.0385
Cl      -1.0938  1.6077  -1.2371
Cl      1.0970  1.3505  1.2877
C       2.6717  -0.6989  -0.8630
C       2.1169  -1.9126  -0.0636
C       -2.5140  -1.3495  -0.4459
C       -2.4729  -1.1352  1.0831
N       1.5021  0.1025  -1.3092
N       1.0333  -1.4461  0.8589
N       -1.1161  -1.2216  -1.0158
N       -1.4600  -0.0699  1.3682
H       2.9860  -2.4316  0.3289
H       1.5794  -2.5950  -0.7129
H       -3.0347  -0.5640  -0.9814
H       -3.0444  -2.2905  -0.5775
H       1.8079  1.0519  -1.4846
H       1.3831  -0.2527  -2.2578
H       -1.9542  0.8097  1.3284
H       -1.2103  -0.1493  2.3436
H       -2.1324  -2.0072  1.6425
H       -3.4899  -0.9186  1.4089
H       0.5322  -2.2588  1.1768
H       1.5962  -1.1958  1.6813
H       3.3813  -1.1492  -1.5749
H       3.2018  -0.0004  -0.2353
H       -0.8550  -2.1897  -1.1790
H       -1.2597  -0.8491  -1.9448
