27

Co      -0.0276  -0.0770  0.0132
Cl      -1.1120  1.6414  -1.2272
Cl      1.1778  1.4737  1.3758
C       2.7577  -0.6966  -0.8901
C       2.1686  -1.9683  -0.1065
C       -2.5815  -1.2974  -0.4471
C       -2.4110  -1.1612  1.0591
N       1.5266  0.1002  -1.3099
N       1.0286  -1.4524  0.9063
N       -1.1549  -1.2324  -0.9625
N       -1.4364  -0.0510  1.2222
H       2.9040  -2.5031  0.4780
H       1.6880  -2.6799  -0.7719
H       -3.1450  -0.4866  -0.8801
H       -3.0270  -2.2428  -0.7364
H       1.6868  1.1065  -1.2267
H       1.2719  -0.0666  -2.2711
H       -1.8828  0.8363  0.9996
H       -1.1231  0.0507  2.1794
H       -1.9704  -2.0636  1.4668
H       -3.3245  -0.9612  1.6025
H       0.5461  -2.2364  1.3115
H       1.4922  -0.9696  1.6622
H       3.4118  -0.9058  -1.7308
H       3.2921  -0.0803  -0.1848
H       -0.7841  -2.1651  -1.0104
H       -1.1651  -0.8629  -1.8960
