27

Co      -0.0587  -0.0607  -0.0235
Cl      -1.1164  1.6561  -1.2217
Cl      1.2073  1.5075  1.4092
C       2.7190  -0.7505  -0.8115
C       2.1918  -1.9538  -0.1294
C       -2.5328  -1.2395  -0.4233
C       -2.3877  -1.1919  1.0623
N       1.5577  0.0516  -1.3016
N       1.1369  -1.5113  0.8391
N       -1.1529  -1.3530  -1.0066
N       -1.5528  -0.0000  1.3240
H       2.8823  -2.4691  0.5468
H       1.8375  -2.6733  -0.8619
H       -3.0486  -0.3349  -0.7186
H       -3.0388  -2.0984  -0.8754
H       1.7041  1.0615  -1.1724
H       1.1429  -0.0853  -2.2202
H       -1.9704  0.8904  1.0805
H       -1.1390  0.0939  2.2432
H       -1.9139  -2.1072  1.4086
H       -3.3180  -1.0671  1.5983
H       0.6122  -2.2821  1.1954
H       1.4255  -0.8850  1.6111
H       3.2543  -0.9083  -1.7549
H       3.3654  -0.2107  -0.1274
H       -0.6933  -2.2546  -0.9218
H       -1.1156  -1.0336  -1.9569
