27

Co      0.0556  0.0495  0.0405
Cl      -1.0723  1.5857  -1.2164
Cl      1.0729  1.3149  1.2655
C       2.5489  -0.6892  -0.7931
C       2.0569  -1.8541  -0.0511
C       -2.4778  -1.3246  -0.4622
C       -2.3981  -1.1168  1.0490
N       1.4471  0.0996  -1.3029
N       1.0661  -1.4881  0.8422
N       -1.0982  -1.2796  -1.0203
N       -1.4060  -0.0473  1.3506
H       2.9867  -2.3727  0.2478
H       1.5369  -2.5129  -0.7352
H       -2.9499  -0.5077  -0.9861
H       -3.0767  -2.2269  -0.5797
H       1.7946  1.0308  -1.5600
H       1.3285  -0.3253  -2.2293
H       -1.9123  0.8319  1.3775
H       -1.1252  -0.1769  2.3062
H       -2.0357  -1.9880  1.5934
H       -3.4145  -0.9266  1.3917
H       0.5742  -2.3211  1.1175
H       1.6088  -1.2702  1.6909
H       3.2418  -1.2249  -1.4847
H       3.1137  0.0173  -0.2063
H       -0.8485  -2.2480  -1.0628
H       -1.2168  -1.0174  -1.9861
