27

Co      -0.0004  0.0187  -0.0209
Cl      -1.0902  1.6181  -1.2084
Cl      1.2086  1.5234  1.4275
C       2.6954  -0.7292  -0.8150
C       2.1570  -1.9599  -0.1197
C       -2.5803  -1.3206  -0.4454
C       -2.4551  -1.2016  1.0579
N       1.5152  0.0246  -1.3400
N       1.0514  -1.5084  0.7937
N       -1.1799  -1.3798  -0.9838
N       -1.5114  -0.0789  1.3209
H       2.9292  -2.4676  0.4480
H       1.7536  -2.6623  -0.8334
H       -3.0510  -0.4441  -0.8622
H       -3.1460  -2.1907  -0.7472
H       1.7479  0.9968  -1.4764
H       1.2359  -0.3194  -2.2368
H       -1.9772  0.8033  1.2197
H       -1.1583  -0.0987  2.2608
H       -2.0472  -2.1044  1.4889
H       -3.4114  -1.0259  1.5201
H       0.4953  -2.2945  1.0754
H       1.4520  -1.1206  1.6278
H       3.3847  -0.9839  -1.6014
H       3.2045  -0.0834  -0.1136
H       -0.8213  -2.3187  -0.8960
H       -1.2025  -1.1657  -1.9691
