27

Co      0.0609  -0.0160  0.0209
Cl      -1.0894  1.6271  -1.2300
Cl      1.0969  1.3680  1.2957
C       2.5354  -0.7066  -0.7858
C       2.0756  -1.8537  -0.0607
C       -2.4355  -1.2747  -0.4345
C       -2.3834  -1.1259  1.0659
N       1.4326  0.0932  -1.2629
N       1.0425  -1.4828  0.7851
N       -1.0732  -1.3431  -1.0413
N       -1.4610  -0.0190  1.3920
H       2.9068  -2.3031  0.4513
H       1.6997  -2.5871  -0.7635
H       -2.9034  -0.4061  -0.8460
H       -3.0236  -2.1378  -0.7093
H       1.6957  1.0521  -1.3682
H       1.1231  -0.2103  -2.1684
H       -1.8946  0.8768  1.2753
H       -1.1439  -0.0561  2.3371
H       -2.0339  -2.0190  1.5653
H       -3.3893  -0.9300  1.4200
H       0.4607  -2.2795  0.9916
H       1.4050  -1.1442  1.6668
H       3.0900  -1.1118  -1.6263
H       3.2042  -0.0840  -0.2062
H       -0.7533  -2.2845  -1.0773
H       -1.1475  -1.0092  -1.9855
