27

Co      -0.0061  -0.0400  -0.0306
Cl      -1.0926  1.5909  -1.1871
Cl      1.1955  1.4899  1.4085
C       2.7008  -0.7102  -0.8143
C       2.1220  -1.9247  -0.1158
C       -2.6097  -1.2795  -0.4296
C       -2.4503  -1.2215  1.0645
N       1.5480  0.0655  -1.3657
N       1.0962  -1.4555  0.8663
N       -1.1766  -1.2061  -0.8958
N       -1.5221  -0.0695  1.2043
H       2.8921  -2.5016  0.3819
H       1.6367  -2.5809  -0.8298
H       -3.1385  -0.4198  -0.8095
H       -3.0689  -2.1864  -0.8053
H       1.7618  1.0547  -1.3729
H       1.3403  -0.1886  -2.3099
H       -2.0076  0.7945  0.9573
H       -1.2086  0.0637  2.1610
H       -1.9722  -2.1184  1.4560
H       -3.3759  -1.0677  1.6098
H       0.6271  -2.2396  1.2919
H       1.5549  -0.9475  1.6076
H       3.3960  -0.9995  -1.5897
H       3.2177  -0.0776  -0.1123
H       -0.7853  -2.1341  -0.8382
H       -1.1758  -0.9467  -1.8677
