27

Co      -0.0323  -0.0200  -0.0490
Cl      -1.1205  1.6595  -1.2363
Cl      1.2100  1.5030  1.4146
C       2.6803  -0.7404  -0.7909
C       2.2005  -2.0082  -0.1134
C       -2.5700  -1.3199  -0.4274
C       -2.4622  -1.1847  1.0767
N       1.4990  0.0557  -1.2627
N       1.1939  -1.5433  0.8912
N       -1.1771  -1.2790  -1.0047
N       -1.5157  -0.0626  1.3099
H       3.0249  -2.5335  0.3599
H       1.7301  -2.6883  -0.8059
H       -3.1116  -0.4818  -0.8418
H       -3.0637  -2.2318  -0.7291
H       1.7431  1.0383  -1.2614
H       1.2702  -0.1662  -2.2124
H       -1.9741  0.8268  1.2086
H       -1.1321  -0.0728  2.2412
H       -2.0650  -2.0797  1.5322
H       -3.4269  -0.9891  1.5174
H       0.7568  -2.3272  1.3675
H       1.6687  -0.9837  1.6013
H       3.3510  -0.9431  -1.6133
H       3.2054  -0.1270  -0.0760
H       -0.7829  -2.2057  -0.9927
H       -1.2461  -0.9914  -1.9638
