27

Co      -0.0276  -0.0739  0.0131
Cl      -1.1030  1.6474  -1.2302
Cl      1.1718  1.4737  1.3788
C       2.6728  -0.6987  -0.8287
C       2.1154  -1.9076  -0.1010
C       -2.5338  -1.2974  -0.4473
C       -2.3962  -1.1492  1.0475
N       1.5080  0.0736  -1.3339
N       1.0388  -1.4759  0.8510
N       -1.1185  -1.2475  -0.9447
N       -1.4092  -0.0631  1.2403
H       2.8855  -2.4455  0.4283
H       1.6669  -2.5955  -0.8076
H       -3.0793  -0.4807  -0.8838
H       -2.9970  -2.2310  -0.7395
H       1.6966  1.0653  -1.3222
H       1.2763  -0.1619  -2.2800
H       -1.8406  0.8362  1.0858
H       -1.0692  -0.0265  2.1827
H       -2.0033  -2.0549  1.4904
H       -3.3273  -0.9193  1.5407
H       0.5587  -2.2802  1.2033
H       1.4675  -1.0261  1.6423
H       3.3200  -1.0110  -1.6336
H       3.2341  -0.0674  -0.1657
H       -0.7390  -2.1743  -0.9361
H       -1.1225  -0.9344  -1.8958
