27

Co      0.0194  -0.0072  -0.0137
Cl      -1.0598  1.5804  -1.1981
Cl      1.1295  1.4075  1.3380
C       2.5374  -0.7046  -0.7822
C       2.0704  -1.8559  -0.0647
C       -2.4171  -1.2781  -0.4371
C       -2.3762  -1.1133  1.0710
N       1.4500  0.0991  -1.3048
N       1.0575  -1.5091  0.8147
N       -1.0866  -1.3751  -1.1154
N       -1.4860  0.0108  1.4489
H       2.9149  -2.3246  0.4130
H       1.6741  -2.5663  -0.7727
H       -2.8854  -0.4058  -0.8481
H       -3.0398  -2.1291  -0.6813
H       1.7194  1.0574  -1.3969
H       1.1725  -0.2032  -2.2203
H       -1.9264  0.9081  1.4016
H       -1.1208  -0.0858  2.3744
H       -2.0171  -1.9954  1.5786
H       -3.4037  -0.9511  1.3915
H       0.5090  -2.3163  1.0456
H       1.4228  -1.1363  1.6763
H       3.1224  -1.1132  -1.5958
H       3.1797  -0.0732  -0.1883
H       -0.7666  -2.3192  -1.1727
H       -1.1947  -1.0296  -2.0541
