27

Co      -0.0715  -0.0700  -0.0166
Cl      -1.0710  1.5982  -1.1958
Cl      1.2019  1.5108  1.4162
C       2.6703  -0.7037  -0.7951
C       2.1106  -1.9056  -0.1282
C       -2.5302  -1.2918  -0.4388
C       -2.3795  -1.1390  1.0337
N       1.5215  0.0532  -1.3592
N       1.0667  -1.4745  0.8525
N       -1.1361  -1.2609  -0.9742
N       -1.4134  -0.0529  1.2498
H       2.7861  -2.4596  0.5287
H       1.7339  -2.5968  -0.8783
H       -3.1658  -0.4951  -0.8024
H       -2.8979  -2.2510  -0.8260
H       1.6363  1.0650  -1.2621
H       1.1239  -0.1357  -2.2674
H       -1.7697  0.8821  1.0998
H       -0.9556  -0.0353  2.1433
H       -2.0182  -2.0774  1.4321
H       -3.2785  -0.8636  1.5731
H       0.5518  -2.2473  1.2091
H       1.3649  -0.8548  1.6226
H       3.2564  -0.8791  -1.6946
H       3.2685  -0.1456  -0.0948
H       -0.6259  -2.1376  -0.9299
H       -1.0928  -0.8950  -1.9070
