27

Co      0.0291  0.0323  0.0625
Cl      -1.0985  1.6419  -1.2441
Cl      1.1083  1.3763  1.3072
C       2.6426  -0.7192  -0.8091
C       2.0883  -1.8559  -0.0819
C       -2.4855  -1.3197  -0.4640
C       -2.4193  -1.1514  1.0514
N       1.5167  0.0314  -1.3384
N       1.0262  -1.4625  0.7410
N       -1.0941  -1.3406  -0.9826
N       -1.4513  -0.0626  1.3754
H       2.9556  -2.3913  0.3021
H       1.6075  -2.5103  -0.7926
H       -2.8926  -0.4585  -0.9775
H       -3.1360  -2.1832  -0.6193
H       1.8400  0.9662  -1.6419
H       1.4040  -0.4399  -2.2508
H       -1.9678  0.8055  1.3747
H       -1.1943  -0.1732  2.3463
H       -2.0353  -2.0232  1.5777
H       -3.4373  -0.9962  1.3948
H       0.5063  -2.2992  0.9653
H       1.5375  -1.2895  1.6294
H       3.3477  -1.2712  -1.4809
H       3.1925  0.0032  -0.2210
H       -0.8581  -2.3193  -0.9676
H       -1.1713  -1.1318  -1.9661
