27

Co      0.0194  -0.0034  -0.0170
Cl      -1.0825  1.5949  -1.1985
Cl      1.1457  1.4143  1.3487
C       2.6395  -0.6991  -0.8162
C       2.1201  -1.9304  -0.0976
C       -2.4819  -1.2610  -0.4403
C       -2.3875  -1.1527  1.0792
N       1.4754  0.0915  -1.2945
N       1.0815  -1.4787  0.8733
N       -1.1298  -1.3874  -1.1093
N       -1.5406  0.0229  1.4171
H       2.9164  -2.4541  0.4010
H       1.6542  -2.6131  -0.7919
H       -2.9237  -0.3535  -0.8239
H       -3.1246  -2.0895  -0.7159
H       1.7062  1.0644  -1.3733
H       1.1818  -0.2003  -2.2080
H       -2.0200  0.8945  1.2709
H       -1.2124  0.0257  2.3642
H       -1.9328  -2.0316  1.5140
H       -3.3907  -1.0683  1.4841
H       0.5444  -2.2554  1.2052
H       1.5125  -1.0490  1.6688
H       3.2862  -0.9635  -1.6348
H       3.1932  -0.0758  -0.1355
H       -0.8288  -2.3442  -1.1546
H       -1.2167  -1.0471  -2.0507
