27

Co      0.0188  0.0247  -0.0103
Cl      -1.0672  1.5631  -1.1832
Cl      1.1304  1.3880  1.3291
C       2.6679  -0.7043  -0.8371
C       2.1314  -1.9407  -0.0880
C       -2.4966  -1.2683  -0.4527
C       -2.4092  -1.1698  1.0840
N       1.4627  0.0724  -1.2564
N       1.0398  -1.4163  0.7959
N       -1.1084  -1.3122  -1.0318
N       -1.5239  -0.0040  1.3737
H       2.9865  -2.4467  0.3457
H       1.6198  -2.6315  -0.7427
H       -2.8830  -0.3645  -0.9146
H       -3.1779  -2.0982  -0.6473
H       1.7679  1.0241  -1.4540
H       1.3468  -0.2961  -2.2018
H       -2.0865  0.8327  1.2623
H       -1.2820  0.0029  2.3549
H       -1.9213  -2.0217  1.5549
H       -3.4294  -1.1170  1.4686
H       0.5506  -2.2018  1.1964
H       1.6115  -1.0981  1.5759
H       3.3957  -1.0681  -1.5575
H       3.1526  -0.0052  -0.1678
H       -0.8890  -2.3015  -1.0470
H       -1.2267  -1.0835  -2.0112
