27

Co      -0.0506  -0.0237  -0.0508
Cl      -1.0689  1.5866  -1.2008
Cl      1.2054  1.5165  1.4273
C       2.6756  -0.7184  -0.7976
C       2.1270  -1.9303  -0.1194
C       -2.5273  -1.3234  -0.4125
C       -2.4787  -1.1679  1.0712
N       1.5595  0.0606  -1.4231
N       1.0867  -1.5412  0.8838
N       -1.1302  -1.2249  -0.9606
N       -1.4991  -0.0920  1.3388
H       2.8353  -2.4643  0.5113
H       1.7589  -2.6251  -0.8652
H       -3.1868  -0.5401  -0.7830
H       -2.8541  -2.2964  -0.8325
H       1.7109  1.0617  -1.3441
H       1.1775  -0.1423  -2.3317
H       -1.8503  0.8475  1.2449
H       -1.0169  -0.1386  2.2242
H       -2.1885  -2.1091  1.5230
H       -3.4189  -0.8578  1.5128
H       0.5509  -2.3250  1.1878
H       1.3640  -0.9521  1.6802
H       3.2967  -0.9093  -1.6640
H       3.2503  -0.1510  -0.0872
H       -0.5837  -2.0889  -0.9464
H       -1.1285  -0.8471  -1.8891
