27

Co      0.0131  0.0147  -0.0375
Cl      -1.0967  1.6308  -1.2274
Cl      1.1781  1.4874  1.3884
C       2.7057  -0.7147  -0.8755
C       2.2053  -2.0330  -0.0933
C       -2.5480  -1.3201  -0.4301
C       -2.4877  -1.1892  1.0913
N       1.4758  0.0898  -1.3040
N       1.0078  -1.5592  0.8738
N       -1.1218  -1.3029  -0.9604
N       -1.5026  -0.0926  1.3484
H       2.9947  -2.4526  0.5298
H       1.8225  -2.8157  -0.7414
H       -3.0574  -0.4783  -0.8715
H       -3.0414  -2.2287  -0.7488
H       1.6930  1.0736  -1.3202
H       1.1771  -0.1360  -2.2357
H       -1.9486  0.7990  1.2352
H       -1.1474  -0.1034  2.2888
H       -2.1319  -2.0993  1.5491
H       -3.4517  -0.9617  1.5174
H       0.4388  -2.3416  1.1522
H       1.4101  -1.1713  1.7106
H       3.3839  -0.8647  -1.7121
H       3.2018  -0.0856  -0.1483
H       -0.7359  -2.2285  -0.9264
H       -1.1665  -1.0368  -1.9292
