27

Co      -0.0457  -0.0292  -0.0315
Cl      -1.0692  1.5922  -1.1941
Cl      1.2001  1.5003  1.4127
C       2.6394  -0.7082  -0.7818
C       2.1281  -1.9367  -0.1239
C       -2.5238  -1.3038  -0.4396
C       -2.3815  -1.1302  1.0412
N       1.4843  0.0600  -1.3152
N       1.1067  -1.5045  0.8745
N       -1.1657  -1.3512  -1.0741
N       -1.4473  -0.0278  1.3261
H       2.8343  -2.4688  0.5087
H       1.7484  -2.6337  -0.8628
H       -3.1314  -0.4860  -0.7989
H       -2.9687  -2.2304  -0.7832
H       1.6279  1.0606  -1.2695
H       1.0444  -0.1557  -2.2035
H       -1.8106  0.9065  1.2249
H       -0.9755  -0.0679  2.2138
H       -2.0250  -2.0607  1.4530
H       -3.3092  -0.8834  1.5327
H       0.5658  -2.2653  1.2194
H       1.4088  -0.8957  1.6468
H       3.2215  -0.8388  -1.6987
H       3.2349  -0.1567  -0.0701
H       -0.6900  -2.2405  -1.0644
H       -1.1740  -0.9683  -2.0004
