27

Co      0.0102  0.0203  0.0279
Cl      -1.0531  1.5701  -1.1991
Cl      1.1158  1.3714  1.3135
C       2.5526  -0.6913  -0.7749
C       2.0645  -1.8653  -0.0716
C       -2.4592  -1.3334  -0.4782
C       -2.3487  -1.0753  1.0368
N       1.4037  0.0640  -1.2279
N       1.0688  -1.4226  0.7822
N       -1.1237  -1.3583  -1.1363
N       -1.3716  -0.0076  1.3741
H       2.9622  -2.3927  0.2728
H       1.5468  -2.5204  -0.7579
H       -2.9275  -0.5185  -1.0104
H       -3.1206  -2.2237  -0.5180
H       1.7288  1.0003  -1.4998
H       1.2745  -0.3716  -2.1486
H       -1.8647  0.8827  1.4449
H       -1.0649  -0.1782  2.3197
H       -1.9849  -1.9363  1.5922
H       -3.3706  -0.8964  1.3630
H       0.5982  -2.2282  1.1469
H       1.6318  -1.1290  1.5811
H       3.2368  -1.1608  -1.4917
H       3.1039  0.0102  -0.1690
H       -0.9074  -2.3410  -1.2347
H       -1.2827  -1.0523  -2.0853
