27

Co      0.0089  0.0647  0.0409
Cl      -1.0689  1.5976  -1.2322
Cl      1.0966  1.3413  1.2859
C       2.6559  -0.6988  -0.8240
C       2.1308  -1.9486  -0.0894
C       -2.4600  -1.3639  -0.4716
C       -2.4223  -1.0885  1.0612
N       1.4326  0.0437  -1.2343
N       1.0364  -1.4259  0.7932
N       -1.0907  -1.3190  -1.0926
N       -1.3959  -0.0552  1.4329
H       2.9812  -2.4634  0.3388
H       1.6158  -2.6285  -0.7515
H       -2.9594  -0.5831  -1.0410
H       -3.0522  -2.2918  -0.5246
H       1.7323  0.9833  -1.5338
H       1.2660  -0.4081  -2.1418
H       -1.8750  0.8463  1.5430
H       -1.0845  -0.2695  2.3803
H       -2.1222  -1.9669  1.6394
H       -3.4517  -0.8582  1.3472
H       0.5250  -2.2139  1.1469
H       1.6142  -1.1623  1.6003
H       3.3882  -1.0485  -1.5483
H       3.1339  0.0014  -0.1535
H       -0.8371  -2.2876  -1.2052
H       -1.2474  -0.9962  -2.0345
