27

Co      0.0220  0.0671  0.0024
Cl      -1.0742  1.5980  -1.2085
Cl      1.0999  1.3462  1.2941
C       2.5495  -0.7213  -0.7971
C       2.1027  -1.8778  -0.1155
C       -2.4357  -1.2490  -0.4335
C       -2.3735  -1.1265  1.0467
N       1.4570  0.0180  -1.2059
N       1.0823  -1.4897  0.7894
N       -1.0703  -1.3548  -1.0137
N       -1.4820  -0.0523  1.3832
H       3.0838  -2.2374  0.2712
H       1.6735  -2.6652  -0.7198
H       -2.8551  -0.4105  -0.9735
H       -3.1010  -2.1223  -0.5159
H       1.8194  0.9488  -1.4673
H       1.3054  -0.3835  -2.1297
H       -2.0184  0.8040  1.3548
H       -1.2308  -0.1365  2.3541
H       -1.9312  -2.0108  1.4939
H       -3.4048  -1.0716  1.4042
H       0.6492  -2.3385  1.1238
H       1.6437  -1.2299  1.6051
H       3.3312  -1.1012  -1.4664
H       3.0149  -0.0560  -0.0881
H       -0.8706  -2.3464  -0.9496
H       -1.1992  -1.2137  -2.0197
