27

Co      -0.0031  -0.0052  0.0139
Cl      -1.0913  1.6359  -1.2256
Cl      1.1170  1.3831  1.3172
C       2.5721  -0.7081  -0.7627
C       2.0840  -1.8700  -0.0891
C       -2.4441  -1.2565  -0.4471
C       -2.3566  -1.1416  1.0479
N       1.4734  0.0638  -1.3147
N       1.0973  -1.5221  0.8214
N       -1.0653  -1.3330  -0.9912
N       -1.4515  -0.0169  1.3571
H       2.9152  -2.3931  0.3566
H       1.6598  -2.5395  -0.8246
H       -2.8967  -0.3717  -0.8527
H       -3.0305  -2.1107  -0.7479
H       1.7258  1.0270  -1.4262
H       1.2165  -0.2644  -2.2266
H       -1.9109  0.8715  1.2819
H       -1.0909  -0.0643  2.2862
H       -1.9494  -2.0375  1.4990
H       -3.3420  -0.9897  1.4633
H       0.5922  -2.3372  1.1055
H       1.4975  -1.1266  1.6536
H       3.1930  -1.0972  -1.5564
H       3.1762  -0.0753  -0.1409
H       -0.7128  -2.2661  -0.8993
H       -1.0846  -1.1041  -1.9691
