27

Co      -0.0707  -0.0164  -0.0265
Cl      -1.0916  1.6088  -1.2018
Cl      1.2286  1.5422  1.4408
C       2.8164  -0.7345  -0.8665
C       2.2047  -1.9952  -0.1486
C       -2.5942  -1.2936  -0.4303
C       -2.4547  -1.2082  1.0629
N       1.6112  0.0427  -1.4043
N       1.0591  -1.5105  0.8764
N       -1.1810  -1.3136  -0.9632
N       -1.5449  -0.0605  1.3097
H       2.8421  -2.5391  0.5838
H       1.8292  -2.7093  -0.8736
H       -3.1761  -0.4463  -0.7718
H       -3.0057  -2.2126  -0.8681
H       1.7235  1.0584  -1.3103
H       1.1895  -0.1388  -2.3069
H       -1.9484  0.8435  1.1187
H       -1.1087  -0.0080  2.2203
H       -2.0256  -2.1427  1.4111
H       -3.3607  -1.0192  1.6223
H       0.4998  -2.2778  1.1927
H       1.3546  -0.9329  1.6680
H       3.4469  -0.8209  -1.7644
H       3.3570  -0.1731  -0.1111
H       -0.6770  -2.2001  -0.8836
H       -1.1253  -0.9868  -1.9107
