27

Co      0.0502  0.0168  0.0352
Cl      -1.0941  1.6126  -1.2227
Cl      1.0987  1.3598  1.2842
C       2.6134  -0.6972  -0.8736
C       2.1362  -1.9256  -0.0389
C       -2.5255  -1.3055  -0.4657
C       -2.3803  -1.1316  1.0551
N       1.4416  0.1478  -1.2445
N       1.0301  -1.5161  0.8845
N       -1.1349  -1.3197  -1.0376
N       -1.4159  -0.0208  1.3070
H       3.0566  -2.3673  0.3527
H       1.6433  -2.6675  -0.6607
H       -2.9666  -0.4613  -0.9758
H       -3.1615  -2.1880  -0.5880
H       1.7656  1.0991  -1.3583
H       1.2985  -0.1352  -2.2076
H       -1.9437  0.8379  1.2355
H       -1.1670  -0.0517  2.2808
H       -1.9372  -1.9942  1.5417
H       -3.3683  -0.9952  1.4782
H       0.5316  -2.3465  1.1630
H       1.5696  -1.2905  1.7340
H       3.2621  -1.1379  -1.6364
H       3.1988  -0.0094  -0.2777
H       -0.9157  -2.3029  -1.0849
H       -1.2407  -1.0510  -2.0045
