27

Co      0.0482  0.0228  0.0295
Cl      -1.1016  1.6147  -1.2200
Cl      1.1028  1.3558  1.2966
C       2.6207  -0.7197  -0.8270
C       2.0939  -1.8539  -0.0548
C       -2.4938  -1.2696  -0.4466
C       -2.4108  -1.1776  1.0753
N       1.5379  0.1068  -1.3488
N       1.0858  -1.5115  0.8423
N       -1.1184  -1.3291  -1.0191
N       -1.5443  -0.0014  1.3879
H       3.0174  -2.3788  0.2515
H       1.5750  -2.5102  -0.7396
H       -2.8649  -0.3543  -0.8999
H       -3.1963  -2.0862  -0.6478
H       1.8925  1.0449  -1.5347
H       1.4549  -0.2595  -2.3018
H       -2.1099  0.8314  1.2890
H       -1.3125  -0.0193  2.3709
H       -1.9216  -2.0246  1.5584
H       -3.4456  -1.1373  1.4405
H       0.6024  -2.3629  1.0946
H       1.6062  -1.2965  1.7038
H       3.2954  -1.3095  -1.5124
H       3.2177  -0.0122  -0.2633
H       -0.9083  -2.3203  -1.0332
H       -1.2213  -1.0973  -1.9974
