27

Co      -0.0746  -0.0700  -0.0026
Cl      -1.0913  1.6356  -1.2223
Cl      1.1816  1.4796  1.3866
C       2.6826  -0.7085  -0.8209
C       2.1370  -1.9271  -0.1069
C       -2.5084  -1.2915  -0.4492
C       -2.3825  -1.1375  1.0475
N       1.5080  0.0638  -1.3162
N       1.0643  -1.4857  0.8452
N       -1.0990  -1.2318  -0.9525
N       -1.4014  -0.0514  1.2579
H       2.9109  -2.4612  0.4244
H       1.6924  -2.6170  -0.8115
H       -3.0636  -0.4827  -0.8916
H       -2.9637  -2.2310  -0.7356
H       1.6985  1.0575  -1.2792
H       1.2978  -0.1501  -2.2761
H       -1.8347  0.8519  1.1564
H       -1.0222  -0.0520  2.1847
H       -1.9896  -2.0412  1.4943
H       -3.3195  -0.9135  1.5290
H       0.6253  -2.2919  1.2562
H       1.5047  -0.9810  1.6032
H       3.3317  -0.9973  -1.6316
H       3.2360  -0.0811  -0.1481
H       -0.6959  -2.1508  -0.9185
H       -1.1069  -0.9403  -1.9096
