27

Co      -0.0781  -0.0578  -0.0060
Cl      -1.1223  1.6731  -1.2387
Cl      1.2188  1.5325  1.4210
C       2.8249  -0.7310  -0.8526
C       2.2442  -2.0588  -0.0883
C       -2.6038  -1.3219  -0.4737
C       -2.4374  -1.2178  1.0747
N       1.5146  0.0807  -1.3250
N       1.0695  -1.5014  0.8259
N       -1.1496  -1.2613  -0.9164
N       -1.4538  -0.0377  1.2460
H       2.9173  -2.6908  0.5091
H       1.7695  -2.6849  -0.8422
H       -3.0723  -0.4154  -0.8421
H       -3.1134  -2.1906  -0.8965
H       1.6793  1.0862  -1.2792
H       1.3086  -0.1248  -2.2878
H       -1.9320  0.8392  1.1115
H       -1.0650  0.0159  2.1789
H       -1.9901  -2.0997  1.5195
H       -3.3520  -1.0030  1.6097
H       0.5560  -2.2543  1.2579
H       1.5051  -0.9830  1.5812
H       3.4156  -0.9547  -1.7336
H       3.3933  -0.0721  -0.2088
H       -0.7135  -2.1747  -0.8075
H       -1.1018  -1.0259  -1.8957
