27

Co      0.0082  0.0509  0.0103
Cl      -1.0493  1.5341  -1.1755
Cl      1.1159  1.3730  1.3070
C       2.5799  -0.7327  -0.8050
C       2.1101  -1.8621  -0.0553
C       -2.5132  -1.2981  -0.4477
C       -2.3799  -1.1361  1.0382
N       1.4971  0.1076  -1.2937
N       1.0950  -1.5097  0.8177
N       -1.1538  -1.3100  -1.0404
N       -1.4572  -0.0151  1.3357
H       2.9587  -2.3179  0.4332
H       1.7224  -2.5987  -0.7474
H       -3.0445  -0.4692  -0.8697
H       -3.0495  -2.2004  -0.6882
H       1.7999  1.0620  -1.3704
H       1.2086  -0.1686  -2.2108
H       -1.9208  0.8738  1.3009
H       -1.0835  -0.0972  2.2548
H       -1.9752  -2.0275  1.4986
H       -3.3547  -0.9622  1.4751
H       0.5589  -2.3252  1.0543
H       1.4678  -1.1374  1.6761
H       3.1248  -1.1764  -1.6456
H       3.2776  -0.1144  -0.2393
H       -0.7834  -2.2347  -1.0192
H       -1.2126  -1.0225  -2.0002
