27

Co      -0.0502  -0.0380  -0.0288
Cl      -1.0696  1.5653  -1.1824
Cl      1.1975  1.4869  1.4034
C       2.7190  -0.7299  -0.8395
C       2.1518  -1.9261  -0.1046
C       -2.5375  -1.2942  -0.4330
C       -2.4297  -1.1633  1.0757
N       1.5521  0.0718  -1.3199
N       1.0855  -1.4373  0.8288
N       -1.1647  -1.2632  -1.0438
N       -1.5275  -0.0159  1.3371
H       2.9137  -2.4586  0.4488
H       1.6988  -2.6205  -0.7948
H       -3.0820  -0.4579  -0.8380
H       -3.0448  -2.2022  -0.7172
H       1.7734  1.0581  -1.2985
H       1.3256  -0.1457  -2.2732
H       -1.9918  0.8649  1.1968
H       -1.1738  0.0012  2.2761
H       -1.9961  -2.0460  1.5245
H       -3.4033  -1.0149  1.5143
H       0.6116  -2.2217  1.2413
H       1.5205  -0.9215  1.5803
H       3.3511  -1.0340  -1.6583
H       3.2973  -0.1084  -0.1753
H       -0.7928  -2.1974  -1.1142
H       -1.2405  -0.8941  -1.9757
