27

Co      -0.0591  -0.0616  -0.0421
Cl      -1.0937  1.6374  -1.2171
Cl      1.1911  1.5051  1.4027
C       2.6463  -0.7239  -0.8196
C       2.1555  -1.9368  -0.0958
C       -2.4916  -1.2532  -0.4187
C       -2.3973  -1.1691  1.0648
N       1.5290  0.1031  -1.3656
N       1.0784  -1.6018  0.8966
N       -1.0914  -1.2803  -0.9484
N       -1.4862  -0.0372  1.3137
H       2.8996  -2.3973  0.5498
H       1.8345  -2.6904  -0.8158
H       -3.0554  -0.3975  -0.7525
H       -2.9146  -2.1597  -0.8756
H       1.6827  1.1125  -1.1783
H       1.1452  0.0076  -2.3076
H       -1.8689  0.8772  1.1426
H       -1.0274  -0.0018  2.2097
H       -2.0091  -2.0982  1.4554
H       -3.3273  -0.9513  1.5659
H       0.5572  -2.4095  1.1675
H       1.3274  -1.0285  1.7195
H       3.1920  -0.9286  -1.7400
H       3.2928  -0.1708  -0.1548
H       -0.5826  -2.1585  -0.8395
H       -1.0463  -0.9809  -1.9058
