27

Co      -0.0368  -0.0325  -0.0484
Cl      -1.0809  1.6045  -1.2078
Cl      1.1712  1.4578  1.3810
C       2.7365  -0.6877  -0.8249
C       2.1768  -2.0434  -0.0744
C       -2.5000  -1.3033  -0.4539
C       -2.4565  -1.1898  1.1160
N       1.4530  0.1183  -1.3484
N       1.0535  -1.4933  0.8799
N       -1.0718  -1.2250  -0.9813
N       -1.4997  -0.0112  1.3786
H       2.8788  -2.6789  0.4641
H       1.6690  -2.6479  -0.8248
H       -2.9705  -0.3939  -0.8143
H       -3.0186  -2.1593  -0.8830
H       1.6269  1.1132  -1.3452
H       1.2411  -0.1294  -2.3015
H       -1.9666  0.8741  1.2774
H       -1.0993  -0.0095  2.3025
H       -2.0729  -2.0654  1.6226
H       -3.4370  -0.9737  1.5158
H       0.5152  -2.2268  1.3168
H       1.4983  -0.9700  1.6245
H       3.3735  -0.8857  -1.6765
H       3.2533  -0.0241  -0.1505
H       -0.6430  -2.1363  -0.9716
H       -1.1036  -0.9112  -1.9327
