27

Co      -0.0496  -0.0169  -0.0540
Cl      -1.1003  1.6256  -1.2063
Cl      1.2373  1.5576  1.4512
C       2.7562  -0.7217  -0.8153
C       2.2256  -2.0680  -0.0901
C       -2.6342  -1.3308  -0.4568
C       -2.4515  -1.2272  1.0704
N       1.5019  0.1123  -1.3777
N       1.1237  -1.5919  0.9251
N       -1.2067  -1.3173  -0.9709
N       -1.4934  -0.0363  1.2691
H       2.8738  -2.6925  0.5498
H       1.8054  -2.6991  -0.8752
H       -3.1764  -0.4261  -0.7419
H       -3.0790  -2.2059  -0.9759
H       1.6319  1.1271  -1.2634
H       1.1072  -0.0519  -2.2932
H       -1.9057  0.8700  1.1316
H       -0.9954  -0.0046  2.1557
H       -2.0393  -2.1406  1.4719
H       -3.3438  -0.9715  1.6419
H       0.5405  -2.3260  1.2806
H       1.4181  -0.9684  1.6969
H       3.2999  -0.8171  -1.7785
H       3.3590  -0.1335  -0.1344
H       -0.6619  -2.1876  -0.8357
H       -1.1360  -1.0331  -1.9350
