27

Co      0.0163  -0.0030  -0.0035
Cl      -1.1028  1.6323  -1.2250
Cl      1.1255  1.3831  1.3191
C       2.5768  -0.7303  -0.8284
C       2.1133  -1.8606  -0.1021
C       -2.4346  -1.2339  -0.4182
C       -2.3780  -1.1277  1.0709
N       1.5099  0.0599  -1.2247
N       1.1119  -1.5014  0.8432
N       -1.0979  -1.3622  -1.0847
N       -1.5477  -0.0061  1.4156
H       3.1060  -2.2345  0.2520
H       1.6490  -2.6373  -0.6935
H       -2.8463  -0.3750  -0.9292
H       -3.1367  -2.0872  -0.5019
H       1.8664  1.0031  -1.3549
H       1.3995  -0.2355  -2.1927
H       -2.0908  0.8370  1.3041
H       -1.3264  -0.0280  2.4036
H       -1.8936  -1.9895  1.5207
H       -3.4307  -1.1288  1.4049
H       0.7183  -2.3687  1.1968
H       1.6730  -1.2030  1.6406
H       3.3183  -1.1716  -1.5089
H       3.0996  -0.0746  -0.1574
H       -0.9353  -2.3717  -1.1492
H       -1.2686  -1.1068  -2.0528
