27

Co      0.0390  0.0464  0.0717
Cl      -1.0813  1.5839  -1.2175
Cl      1.0789  1.3129  1.2584
C       2.6646  -0.6958  -0.8423
C       2.1055  -1.8892  -0.0851
C       -2.5275  -1.3239  -0.4629
C       -2.3835  -1.1122  1.0350
N       1.5066  0.0964  -1.3037
N       1.0620  -1.4384  0.8799
N       -1.1581  -1.3241  -1.0759
N       -1.4240  -0.0227  1.3478
H       2.8768  -2.4386  0.4163
H       1.6220  -2.5684  -0.7792
H       -3.0882  -0.5281  -0.9186
H       -3.0408  -2.2560  -0.6494
H       1.7387  1.0604  -1.4453
H       1.1579  -0.2455  -2.1853
H       -1.8640  0.8803  1.2840
H       -1.0948  -0.0985  2.2864
H       -2.0014  -2.0164  1.4926
H       -3.3443  -0.9103  1.4857
H       0.4893  -2.2239  1.1351
H       1.4969  -1.0969  1.7193
H       3.2724  -1.0336  -1.6760
H       3.2784  -0.0793  -0.2053
H       -0.8204  -2.2592  -1.1687
H       -1.2157  -0.9168  -1.9929
