27

Co      -0.0572  -0.0233  -0.0401
Cl      -1.0982  1.6215  -1.2208
Cl      1.1981  1.5063  1.4016
C       2.7763  -0.7386  -0.9093
C       2.2345  -2.0196  -0.0895
C       -2.5532  -1.3021  -0.4228
C       -2.4859  -1.1958  1.0966
N       1.5681  0.1084  -1.3456
N       1.0391  -1.5638  0.8967
N       -1.1225  -1.2157  -0.9323
N       -1.5282  -0.0714  1.3253
H       3.0172  -2.4604  0.5265
H       1.8329  -2.7962  -0.7313
H       -3.1013  -0.4776  -0.8545
H       -2.9918  -2.2357  -0.7669
H       1.7809  1.1059  -1.2201
H       1.3435  -0.0090  -2.3314
H       -1.9891  0.8104  1.1907
H       -1.1584  -0.0466  2.2623
H       -2.0815  -2.0956  1.5372
H       -3.4431  -1.0021  1.5515
H       0.5523  -2.3748  1.2382
H       1.4479  -1.1023  1.6946
H       3.4254  -0.9608  -1.7473
H       3.3213  -0.1168  -0.2156
H       -0.6988  -2.1313  -0.9148
H       -1.1537  -0.9223  -1.8918
