27

Co      -0.0396  -0.0222  -0.0644
Cl      -1.0665  1.5876  -1.1948
Cl      1.2099  1.5326  1.4293
C       2.7288  -0.7155  -0.8657
C       2.1973  -2.0260  -0.1114
C       -2.5337  -1.3066  -0.4271
C       -2.4833  -1.1878  1.0937
N       1.4744  0.0571  -1.2948
N       0.9778  -1.4823  0.8010
N       -1.0958  -1.2296  -0.9194
N       -1.4884  -0.0978  1.3115
H       2.9424  -2.4551  0.5750
H       1.8312  -2.8116  -0.7661
H       -3.0694  -0.4799  -0.8650
H       -2.9768  -2.2360  -0.7735
H       1.6641  1.0516  -1.2781
H       1.2183  -0.1527  -2.2443
H       -1.9294  0.7960  1.1798
H       -1.1210  -0.0761  2.2477
H       -2.1278  -2.0975  1.5534
H       -3.4375  -0.9458  1.5296
H       0.4464  -2.2457  1.1789
H       1.3914  -1.0054  1.5860
H       3.4221  -0.8383  -1.6971
H       3.1962  -0.0832  -0.1186
H       -0.6776  -2.1453  -0.8719
H       -1.1322  -0.9741  -1.8918
