27

Co      -0.0013  0.0391  0.0129
Cl      -1.0868  1.6260  -1.2322
Cl      1.1181  1.3842  1.3192
C       2.6675  -0.7063  -0.8086
C       2.1284  -1.9408  -0.1100
C       -2.4667  -1.2964  -0.4437
C       -2.4317  -1.1563  1.0676
N       1.4976  0.0419  -1.3414
N       1.0447  -1.5051  0.8261
N       -1.0604  -1.3045  -0.9647
N       -1.4741  -0.0661  1.3988
H       2.9046  -2.4622  0.4227
H       1.7023  -2.6273  -0.8261
H       -2.9582  -0.4488  -0.8850
H       -2.9871  -2.1898  -0.7451
H       1.7215  1.0084  -1.4975
H       1.2065  -0.3227  -2.2338
H       -1.9196  0.8335  1.3597
H       -1.1074  -0.1524  2.3280
H       -2.0836  -2.0682  1.5385
H       -3.4185  -0.9516  1.4552
H       0.4909  -2.2963  1.0993
H       1.4581  -1.1381  1.6650
H       3.3553  -0.9755  -1.5944
H       3.1797  -0.0670  -0.1129
H       -0.6767  -2.2267  -0.8994
H       -1.0851  -1.0526  -1.9339
