27

Co      -0.0144  0.0217  0.0500
Cl      -1.0874  1.6011  -1.2173
Cl      1.1031  1.3361  1.2884
C       2.6376  -0.7265  -0.8019
C       2.0778  -1.8122  -0.1483
C       -2.4684  -1.2571  -0.4251
C       -2.3665  -1.1107  1.0264
N       1.5868  0.0060  -1.3004
N       1.1291  -1.4233  0.8357
N       -1.1211  -1.3079  -1.0400
N       -1.4923  -0.0374  1.3612
H       2.9139  -2.3008  0.3208
H       1.6279  -2.5287  -0.8170
H       -3.0362  -0.4784  -0.8988
H       -2.9770  -2.1991  -0.5828
H       1.8416  0.9667  -1.4366
H       1.2877  -0.3363  -2.1942
H       -1.9428  0.8550  1.2571
H       -1.1836  -0.0845  2.3091
H       -1.9385  -2.0265  1.4253
H       -3.3506  -1.0071  1.4611
H       0.6832  -2.2576  1.1712
H       1.5881  -1.0088  1.6229
H       3.3382  -1.0864  -1.5486
H       3.1937  -0.1398  -0.0970
H       -0.8034  -2.2547  -1.0817
H       -1.1899  -0.9627  -1.9753
