27

Co      0.0170  -0.0052  -0.0122
Cl      -1.0710  1.5985  -1.1991
Cl      1.1373  1.4118  1.3468
C       2.5591  -0.6991  -0.7701
C       2.0764  -1.8836  -0.0789
C       -2.4489  -1.2701  -0.4566
C       -2.3724  -1.1431  1.0668
N       1.4166  0.0567  -1.2565
N       1.0592  -1.4564  0.7628
N       -1.0794  -1.3475  -1.0378
N       -1.4654  -0.0088  1.3697
H       2.9808  -2.3891  0.2814
H       1.5895  -2.5508  -0.7710
H       -2.8173  -0.3623  -0.9256
H       -3.1608  -2.0883  -0.6339
H       1.7409  0.9994  -1.4889
H       1.3292  -0.3492  -2.1978
H       -2.0020  0.8454  1.3173
H       -1.1950  -0.0578  2.3362
H       -1.9339  -1.9964  1.5748
H       -3.4028  -1.0494  1.4105
H       0.5925  -2.2658  1.1304
H       1.6034  -1.1509  1.5652
H       3.2707  -1.1531  -1.4658
H       3.0762  0.0114  -0.1450
H       -0.8660  -2.3364  -1.0149
H       -1.1970  -1.1587  -2.0295
