27

Co      -0.0627  -0.0268  -0.0164
Cl      -1.0866  1.6057  -1.2105
Cl      1.2200  1.5277  1.4264
C       2.7004  -0.7337  -0.8376
C       2.1724  -1.9485  -0.0947
C       -2.5937  -1.3595  -0.4489
C       -2.4326  -1.1422  1.0443
N       1.5442  0.0822  -1.3271
N       1.1180  -1.5310  0.8892
N       -1.2176  -1.2821  -1.0451
N       -1.4348  -0.0615  1.2739
H       2.9792  -2.4708  0.4069
H       1.7163  -2.6452  -0.7821
H       -3.2050  -0.5888  -0.9103
H       -3.0442  -2.3267  -0.6600
H       1.7786  1.0673  -1.2913
H       1.3194  -0.1207  -2.2829
H       -1.8651  0.8482  1.2425
H       -1.0269  -0.1333  2.1895
H       -2.0607  -2.0406  1.5136
H       -3.3723  -0.8958  1.5145
H       0.6708  -2.3457  1.2698
H       1.5535  -1.0385  1.6556
H       3.3343  -1.0447  -1.6555
H       3.2856  -0.1100  -0.1804
H       -0.8166  -2.2041  -1.0966
H       -1.2820  -0.9278  -1.9810
