27

Co      0.0170  0.0060  -0.0151
Cl      -1.0794  1.6180  -1.2185
Cl      1.1512  1.4369  1.3635
C       2.6262  -0.6944  -0.7879
C       2.1145  -1.9490  -0.1143
C       -2.4715  -1.3028  -0.4432
C       -2.4209  -1.1431  1.0720
N       1.4314  0.0368  -1.2820
N       1.0385  -1.4650  0.8031
N       -1.0910  -1.3575  -1.0397
N       -1.4704  -0.0506  1.3984
H       2.8878  -2.4583  0.4371
H       1.6909  -2.6422  -0.8241
H       -2.9515  -0.4431  -0.8745
H       -3.0394  -2.1783  -0.7143
H       1.6454  1.0064  -1.4452
H       1.1247  -0.3289  -2.1695
H       -1.9049  0.8521  1.3276
H       -1.1149  -0.1158  2.3333
H       -2.0797  -2.0468  1.5561
H       -3.4136  -0.9356  1.4424
H       0.4753  -2.2270  1.1256
H       1.4625  -1.0544  1.6130
H       3.3137  -0.9023  -1.5909
H       3.1203  -0.0583  -0.0725
H       -0.7476  -2.2955  -1.0392
H       -1.1605  -1.0609  -1.9946
