27

Co      -0.0545  -0.0677  -0.0257
Cl      -1.0884  1.6117  -1.2123
Cl      1.2218  1.5334  1.4299
C       2.7118  -0.7389  -0.8266
C       2.1744  -1.9514  -0.1087
C       -2.5661  -1.3377  -0.4335
C       -2.4501  -1.1510  1.0659
N       1.5135  0.0462  -1.2595
N       1.0876  -1.4282  0.7897
N       -1.1783  -1.2354  -1.0130
N       -1.4591  -0.0672  1.2753
H       2.9310  -2.4568  0.4852
H       1.7503  -2.6713  -0.7927
H       -3.1667  -0.5542  -0.8750
H       -3.0025  -2.2988  -0.6931
H       1.7239  1.0377  -1.2257
H       1.2824  -0.1540  -2.2158
H       -1.8825  0.8383  1.1563
H       -1.0943  -0.0667  2.2112
H       -2.0927  -2.0476  1.5509
H       -3.3998  -0.8954  1.5063
H       0.6229  -2.2015  1.2401
H       1.5290  -0.8812  1.5247
H       3.3305  -0.9976  -1.6708
H       3.2901  -0.1232  -0.1566
H       -0.7816  -2.1594  -1.0980
H       -1.2542  -0.8546  -1.9409
