27

Co      0.0738  0.0193  0.0096
Cl      -1.0649  1.5777  -1.2027
Cl      1.1060  1.3676  1.3098
C       2.5579  -0.6588  -0.7901
C       2.0616  -1.9110  -0.0880
C       -2.4913  -1.3219  -0.4539
C       -2.3886  -1.1037  1.0529
N       1.3846  0.0941  -1.2662
N       1.0363  -1.4455  0.8790
N       -1.1292  -1.3536  -1.1028
N       -1.4101  -0.0347  1.3622
H       2.8602  -2.4323  0.4012
H       1.5907  -2.5943  -0.7835
H       -3.0244  -0.5049  -0.9022
H       -3.0383  -2.2302  -0.6516
H       1.6063  1.0581  -1.4417
H       1.0339  -0.2779  -2.1394
H       -1.8283  0.8793  1.2889
H       -1.0720  -0.1065  2.2975
H       -2.0607  -2.0086  1.5451
H       -3.3674  -0.8635  1.4470
H       0.4497  -2.2018  1.1752
H       1.4780  -1.0677  1.6951
H       3.2209  -0.8926  -1.6091
H       3.0872  -0.0326  -0.0962
H       -0.8122  -2.2954  -1.2017
H       -1.2278  -0.9614  -2.0257
