27

Co      -0.0368  -0.0320  -0.0489
Cl      -1.0809  1.6045  -1.2078
Cl      1.1712  1.4578  1.3810
C       2.6615  -0.7141  -0.8112
C       2.1436  -1.9521  -0.1002
C       -2.4746  -1.2765  -0.4213
C       -2.4441  -1.1663  1.0939
N       1.5009  0.0761  -1.3215
N       1.0863  -1.5049  0.8571
N       -1.0771  -1.2288  -0.9785
N       -1.5189  -0.0418  1.3690
H       2.9435  -2.4578  0.4193
H       1.7054  -2.6518  -0.7933
H       -2.9954  -0.4279  -0.8305
H       -2.9650  -2.1770  -0.7595
H       1.7249  1.0594  -1.3098
H       1.2849  -0.1501  -2.2776
H       -1.9723  0.8469  1.2540
H       -1.1467  -0.0465  2.3006
H       -2.0624  -2.0596  1.5671
H       -3.4361  -0.9842  1.4806
H       0.6157  -2.2954  1.2613
H       1.5190  -0.9978  1.6157
H       3.3303  -0.9756  -1.6135
H       3.1921  -0.0874  -0.1191
H       -0.6794  -2.1506  -0.9778
H       -1.1415  -0.9257  -1.9322
