27

Co      0.0138  0.0023  -0.0470
Cl      -1.0884  1.5860  -1.1794
Cl      1.1983  1.4979  1.4071
C       2.7283  -0.7115  -0.8587
C       2.1955  -2.0255  -0.1169
C       -2.6268  -1.2706  -0.4387
C       -2.4426  -1.2326  1.0708
N       1.4777  0.0743  -1.2719
N       1.0452  -1.4721  0.8577
N       -1.1856  -1.2975  -0.9250
N       -1.5298  -0.0599  1.2234
H       2.9520  -2.5040  0.5008
H       1.7673  -2.7728  -0.7767
H       -3.0957  -0.3723  -0.8166
H       -3.1572  -2.1387  -0.8081
H       1.6837  1.0663  -1.2889
H       1.1874  -0.1560  -2.2014
H       -2.0350  0.7919  0.9616
H       -1.2254  0.0901  2.1862
H       -1.9306  -2.1312  1.4237
H       -3.3598  -1.1159  1.6468
H       0.5082  -2.2233  1.2622
H       1.4985  -0.9955  1.6183
H       3.4196  -0.8230  -1.6988
H       3.2036  -0.0904  -0.1024
H       -0.8244  -2.2371  -0.8121
H       -1.1840  -1.0971  -1.9190
