27

Co      -0.0414  -0.0628  -0.0667
Cl      -1.0937  1.6121  -1.1886
Cl      1.2251  1.5383  1.4381
C       2.7354  -0.7118  -0.8538
C       2.2025  -2.0297  -0.1234
C       -2.5759  -1.2496  -0.4338
C       -2.4195  -1.2125  1.0822
N       1.4755  0.0713  -1.2579
N       1.0545  -1.4689  0.8549
N       -1.1438  -1.2704  -0.9398
N       -1.5203  -0.0365  1.2380
H       2.9544  -2.5154  0.4970
H       1.7687  -2.7706  -0.7838
H       -3.0462  -0.3505  -0.8086
H       -3.1050  -2.1173  -0.8108
H       1.6552  1.0772  -1.1831
H       1.2376  -0.0914  -2.2247
H       -2.0143  0.8204  0.9712
H       -1.1960  0.1235  2.1956
H       -1.9093  -2.1031  1.4493
H       -3.3480  -1.1012  1.6302
H       0.5831  -2.2257  1.3447
H       1.5205  -0.9066  1.5672
H       3.4236  -0.8102  -1.6982
H       3.2062  -0.0941  -0.0938
H       -0.7759  -2.2097  -0.8537
H       -1.1537  -1.0432  -1.9236
