27

Co      -0.0505  0.0112  -0.0225
Cl      -1.0993  1.6182  -1.2046
Cl      1.1902  1.4730  1.3860
C       2.7812  -0.7323  -0.8717
C       2.2340  -2.0360  -0.1251
C       -2.5668  -1.2636  -0.4496
C       -2.4074  -1.2003  1.0687
N       1.5273  0.0625  -1.2754
N       1.0841  -1.5038  0.8687
N       -1.1574  -1.3492  -0.9980
N       -1.5351  -0.0145  1.3209
H       2.9862  -2.5369  0.4770
H       1.7905  -2.7635  -0.7911
H       -3.0185  -0.3616  -0.8425
H       -3.1483  -2.1165  -0.7718
H       1.7312  1.0540  -1.2780
H       1.2462  -0.1571  -2.2127
H       -2.0430  0.8429  1.1574
H       -1.1878  0.0418  2.2670
H       -1.8868  -2.0911  1.4298
H       -3.3526  -1.1287  1.5985
H       0.5857  -2.2778  1.2789
H       1.5413  -1.0187  1.6247
H       3.4552  -0.8660  -1.7182
H       3.2798  -0.1160  -0.1303
H       -0.8002  -2.2914  -0.8981
H       -1.1657  -1.1288  -1.9813
