27

Co      -0.0053  -0.0175  -0.0086
Cl      -1.1323  1.6789  -1.2448
Cl      1.2072  1.5161  1.4096
C       2.7596  -0.7336  -0.8513
C       2.2255  -2.0277  -0.1365
C       -2.6062  -1.3040  -0.4322
C       -2.4418  -1.1973  1.0597
N       1.5290  0.0548  -1.2946
N       1.0933  -1.5307  0.8908
N       -1.2046  -1.3921  -1.0130
N       -1.5225  -0.0578  1.3070
H       2.8950  -2.5267  0.5873
H       1.8601  -2.7707  -0.8416
H       -3.1596  -0.4412  -0.7736
H       -3.0732  -2.2025  -0.8367
H       1.6547  1.0652  -1.2283
H       1.0385  -0.1237  -2.1783
H       -1.9152  0.8496  1.0862
H       -1.1187  0.0056  2.2315
H       -2.0289  -2.1329  1.4150
H       -3.3476  -0.9921  1.6141
H       0.4949  -2.2793  1.1913
H       1.3971  -0.9780  1.6919
H       3.3464  -0.7589  -1.8045
H       3.3296  -0.1914  -0.1006
H       -0.7499  -2.2940  -0.9649
H       -1.1721  -1.0433  -1.9539
