27

Co      -0.0457  -0.0268  -0.0285
Cl      -1.0866  1.6057  -1.2105
Cl      1.2200  1.5253  1.4264
C       2.6907  -0.7386  -0.8255
C       2.1821  -1.9655  -0.0995
C       -2.5768  -1.3546  -0.4416
C       -2.4423  -1.1422  1.0588
N       1.5103  0.0676  -1.2713
N       1.1228  -1.4946  0.8504
N       -1.2128  -1.3040  -1.0790
N       -1.4639  -0.0518  1.3127
H       2.9792  -2.4684  0.4360
H       1.7406  -2.6767  -0.7797
H       -3.1686  -0.5670  -0.8909
H       -3.0588  -2.3024  -0.6551
H       1.7470  1.0503  -1.2622
H       1.2612  -0.1474  -2.2174
H       -1.8942  0.8555  1.2619
H       -1.0706  -0.1163  2.2356
H       -2.0801  -2.0357  1.5427
H       -3.4014  -0.9055  1.4903
H       0.6538  -2.2826  1.2601
H       1.5632  -0.9803  1.6022
H       3.3149  -1.0010  -1.6652
H       3.2711  -0.1222  -0.1562
H       -0.8312  -2.2332  -1.1646
H       -1.3087  -0.9278  -2.0076
