27

Co      -0.0117  -0.0534  -0.0108
Cl      -1.1365  1.6873  -1.2490
Cl      1.2115  1.5266  1.4181
C       2.7853  -0.7270  -0.8825
C       2.2174  -2.0178  -0.1226
C       -2.5808  -1.2962  -0.4352
C       -2.4590  -1.2037  1.0856
N       1.5362  0.0596  -1.2993
N       1.0453  -1.4920  0.8582
N       -1.1659  -1.3423  -0.9916
N       -1.5385  -0.0536  1.3169
H       2.9544  -2.5225  0.4977
H       1.7773  -2.7432  -0.7931
H       -3.0532  -0.4138  -0.8410
H       -3.1322  -2.1702  -0.7602
H       1.7155  1.0583  -1.2806
H       1.2616  -0.1494  -2.2411
H       -2.0062  0.8178  1.0929
H       -1.2329  0.0342  2.2837
H       -2.0098  -2.0987  1.4948
H       -3.4092  -1.0590  1.5693
H       0.5191  -2.2678  1.2194
H       1.4834  -1.0422  1.6436
H       3.4579  -0.8890  -1.7187
H       3.2896  -0.1034  -0.1541
H       -0.8267  -2.2916  -0.9999
H       -1.1946  -1.0298  -1.9446
