27

Co      0.0587  0.0587  0.0260
Cl      -1.0830  1.5824  -1.2098
Cl      1.1233  1.3780  1.3225
C       2.6050  -0.7113  -0.7836
C       2.0812  -1.8750  -0.0754
C       -2.5696  -1.3586  -0.4572
C       -2.4525  -1.1578  1.0495
N       1.4934  0.0623  -1.3156
N       1.1189  -1.4601  0.8289
N       -1.1892  -1.2888  -1.0229
N       -1.4620  -0.0728  1.3155
H       2.9896  -2.4426  0.2178
H       1.5295  -2.4981  -0.7736
H       -3.0620  -0.5429  -0.9683
H       -3.1558  -2.2676  -0.5797
H       1.8481  0.9938  -1.6076
H       1.3850  -0.3949  -2.2311
H       -1.9823  0.7974  1.3135
H       -1.1912  -0.1744  2.2798
H       -2.0681  -2.0267  1.5799
H       -3.4554  -0.9741  1.4242
H       0.6368  -2.2766  1.1624
H       1.6885  -1.1978  1.6384
H       3.3318  -1.2244  -1.4560
H       3.1378  -0.0024  -0.1671
H       -0.9368  -2.2617  -1.0820
H       -1.3169  -1.0207  -1.9873
