27

Co      0.0217  0.0258  0.0023
Cl      -1.0672  1.5849  -1.2152
Cl      1.0893  1.3314  1.2867
C       2.5501  -0.7026  -0.8158
C       2.0605  -1.8332  -0.1014
C       -2.3785  -1.2702  -0.4171
C       -2.4050  -1.0855  1.0769
N       1.4941  0.0547  -1.2694
N       1.0675  -1.4688  0.8437
N       -1.0457  -1.2976  -1.0943
N       -1.5046  -0.0355  1.4758
H       3.0388  -2.2316  0.2433
H       1.5808  -2.5868  -0.7046
H       -2.8657  -0.4825  -0.9774
H       -2.9971  -2.1832  -0.4588
H       1.8411  0.9894  -1.4731
H       1.3754  -0.3158  -2.2150
H       -2.0022  0.8418  1.4703
H       -1.2498  -0.1673  2.4445
H       -2.0407  -1.9617  1.6020
H       -3.4814  -0.9877  1.3194
H       0.6494  -2.3286  1.1721
H       1.6298  -1.1991  1.6538
H       3.3330  -1.1529  -1.4616
H       3.0330  -0.0351  -0.1290
H       -0.8481  -2.2883  -1.2368
H       -1.2508  -0.9697  -2.0349
