27

Co      -0.0089  -0.0587  -0.0439
Cl      -1.0989  1.6323  -1.2019
Cl      1.2118  1.5373  1.4381
C       2.6504  -0.6968  -0.8197
C       2.1133  -1.9275  -0.1023
C       -2.5560  -1.2603  -0.4369
C       -2.4137  -1.2098  1.0658
N       1.5130  0.0862  -1.3945
N       1.0442  -1.5559  0.8861
N       -1.1368  -1.3161  -0.9293
N       -1.5062  -0.0505  1.2562
H       2.9227  -2.4520  0.3878
H       1.6734  -2.6110  -0.8155
H       -3.0007  -0.3498  -0.8165
H       -3.1183  -2.1102  -0.8080
H       1.7240  1.0755  -1.3852
H       1.3082  -0.1547  -2.3448
H       -1.9881  0.8145  1.0436
H       -1.1725  0.0474  2.2049
H       -1.9365  -2.1030  1.4570
H       -3.3565  -1.0824  1.5799
H       0.5559  -2.3723  1.2006
H       1.4514  -1.1252  1.6962
H       3.3492  -0.9973  -1.5834
H       3.1608  -0.0480  -0.1289
H       -0.7814  -2.2575  -0.8125
H       -1.1271  -1.1186  -1.9224
