27

Co      0.0082  0.0603  0.0039
Cl      -1.0402  1.5401  -1.1785
Cl      1.1099  1.3730  1.3100
C       2.5298  -0.7150  -0.8108
C       2.0701  -1.8256  -0.1045
C       -2.4574  -1.2712  -0.4269
C       -2.3642  -1.1006  1.0218
N       1.4976  0.0561  -1.2909
N       1.0456  -1.5217  0.8322
N       -1.1054  -1.3347  -1.0254
N       -1.4376  -0.0636  1.3500
H       2.9760  -2.1663  0.4081
H       1.7319  -2.6511  -0.7342
H       -3.0210  -0.5030  -0.9242
H       -2.9659  -2.2179  -0.5735
H       1.7921  1.0075  -1.4075
H       1.1760  -0.2499  -2.1899
H       -1.8728  0.8406  1.3234
H       -1.0828  -0.1710  2.2735
H       -1.9918  -2.0245  1.4436
H       -3.3450  -0.9367  1.4417
H       0.5448  -2.3740  1.0351
H       1.4292  -1.1928  1.7053
H       3.2034  -1.0711  -1.5779
H       3.1065  -0.1186  -0.1310
H       -0.7689  -2.2698  -0.9856
H       -1.1791  -1.0795  -1.9938
