27

Co      -0.0333  0.0137  -0.0623
Cl      -1.0623  1.5792  -1.1906
Cl      1.2057  1.5220  1.4209
C       2.7077  -0.7176  -0.8572
C       2.2100  -2.0451  -0.1072
C       -2.5591  -1.3235  -0.4377
C       -2.4706  -1.1815  1.0768
N       1.4490  0.0613  -1.2674
N       1.0032  -1.5119  0.8200
N       -1.1253  -1.2613  -0.9363
N       -1.4588  -0.1021  1.2925
H       2.9783  -2.4593  0.5602
H       1.8460  -2.8391  -0.7556
H       -3.1032  -0.5074  -0.8883
H       -3.0085  -2.2592  -0.7502
H       1.6577  1.0495  -1.2802
H       1.1676  -0.1632  -2.2041
H       -1.9019  0.7960  1.2094
H       -1.0703  -0.1184  2.2181
H       -2.1151  -2.0954  1.5280
H       -3.4121  -0.9289  1.5380
H       0.4676  -2.2753  1.1915
H       1.4231  -1.0455  1.6071
H       3.3967  -0.8171  -1.7013
H       3.1772  -0.0895  -0.1059
H       -0.7050  -2.1749  -0.8550
H       -1.1597  -1.0375  -1.9192
