27

Co      0.0502  0.0297  0.0288
Cl      -1.0988  1.6392  -1.2292
Cl      1.1030  1.3667  1.3009
C       2.5960  -0.6773  -0.8025
C       2.0982  -1.9272  -0.0934
C       -2.5036  -1.2793  -0.4615
C       -2.3634  -1.1470  1.0396
N       1.4336  0.0865  -1.3049
N       1.0510  -1.5303  0.8925
N       -1.1058  -1.3832  -1.0032
N       -1.4239  -0.0358  1.3234
H       2.9112  -2.4452  0.3804
H       1.6463  -2.6119  -0.8015
H       -2.9548  -0.4001  -0.8855
H       -3.0955  -2.1398  -0.7315
H       1.6597  1.0529  -1.4598
H       1.1038  -0.2693  -2.1875
H       -1.8836  0.8529  1.2207
H       -1.0901  -0.0608  2.2633
H       -1.9476  -2.0549  1.4582
H       -3.3187  -0.9816  1.5153
H       0.4832  -2.3232  1.1375
H       1.4747  -1.1973  1.7428
H       3.2628  -0.9395  -1.6088
H       3.1292  -0.0448  -0.1169
H       -0.7805  -2.3250  -0.9173
H       -1.1133  -1.1472  -1.9800
