27

Co      -0.0170  -0.0065  0.0156
Cl      -1.0974  1.6060  -1.2125
Cl      1.1632  1.4417  1.3575
C       2.7760  -0.7048  -0.8451
C       2.1837  -2.0032  -0.0789
C       -2.6089  -1.3302  -0.4647
C       -2.4274  -1.1906  1.0619
N       1.5355  0.1351  -1.3951
N       1.0907  -1.5113  0.9351
N       -1.1944  -1.2921  -1.0092
N       -1.4727  -0.0094  1.2974
H       2.7938  -2.6722  0.5579
H       1.7220  -2.6112  -0.8655
H       -3.1860  -0.4588  -0.7644
H       -3.0332  -2.2302  -0.9354
H       1.6520  1.1452  -1.3163
H       1.0969  -0.0626  -2.2897
H       -1.8734  0.9025  1.1438
H       -1.0187  0.0149  2.1964
H       -2.0231  -2.1045  1.4749
H       -3.3260  -0.9337  1.6224
H       0.4654  -2.2423  1.2317
H       1.3885  -0.9546  1.7377
H       3.2795  -0.8808  -1.8181
H       3.4375  -0.1243  -0.2076
H       -0.6738  -2.1658  -0.9931
H       -1.1333  -0.8826  -1.9295
