27

Co      -0.0025  0.0043  0.0045
Cl      -1.1170  1.6435  -1.2330
Cl      1.1849  1.4687  1.3830
C       2.7251  -0.7491  -0.7845
C       2.1812  -1.9642  -0.1447
C       -2.6122  -1.3231  -0.4252
C       -2.4636  -1.1970  1.0467
N       1.5454  0.0074  -1.2897
N       1.1555  -1.4539  0.8158
N       -1.2080  -1.2972  -0.9616
N       -1.5112  -0.0889  1.2732
H       2.8458  -2.5188  0.5317
H       1.8023  -2.6562  -0.8915
H       -3.2318  -0.5054  -0.7702
H       -2.9938  -2.2670  -0.8371
H       1.7023  1.0033  -1.3116
H       1.0751  -0.2529  -2.1523
H       -1.8925  0.8294  1.0860
H       -1.1009  -0.0553  2.1909
H       -2.0975  -2.1395  1.4376
H       -3.3698  -0.9355  1.5822
H       0.5786  -2.1903  1.1744
H       1.4759  -0.8568  1.5834
H       3.3012  -0.8664  -1.7137
H       3.3285  -0.2080  -0.0650
H       -0.7086  -2.1798  -0.9163
H       -1.1782  -0.9428  -1.8991
