27

Co      0.0276  0.0799  -0.0161
Cl      -1.0647  1.5826  -1.2039
Cl      1.1365  1.4049  1.3453
C       2.6334  -0.6969  -0.8150
C       2.1286  -1.9685  -0.0907
C       -2.4821  -1.3269  -0.4612
C       -2.4397  -1.1490  1.0795
N       1.4376  0.0563  -1.2950
N       1.0418  -1.5058  0.8282
N       -1.1090  -1.3876  -1.0772
N       -1.4929  -0.0426  1.4488
H       3.0184  -2.4698  0.2983
H       1.6223  -2.6440  -0.7594
H       -2.8808  -0.4522  -0.9737
H       -3.1735  -2.1710  -0.5931
H       1.7597  0.9934  -1.5967
H       1.2978  -0.4009  -2.2066
H       -2.0225  0.8246  1.5008
H       -1.1878  -0.1955  2.4025
H       -2.0554  -2.0151  1.6060
H       -3.4809  -1.0213  1.3864
H       0.5222  -2.3060  1.1442
H       1.5981  -1.2614  1.6542
H       3.4174  -1.0348  -1.4981
H       3.0607  0.0207  -0.1166
H       -0.8795  -2.3708  -1.0816
H       -1.2520  -1.1804  -2.0611
