27

Co      0.0106  0.0652  -0.0010
Cl      -1.0427  1.5425  -1.1810
Cl      1.1124  1.3754  1.3149
C       2.5298  -0.7126  -0.8182
C       2.0651  -1.8207  -0.0996
C       -2.4427  -1.2712  -0.4244
C       -2.3691  -1.0982  1.0317
N       1.5197  0.0733  -1.3302
N       1.0554  -1.5585  0.8739
N       -1.1103  -1.3715  -1.0744
N       -1.4719  -0.0440  1.4065
H       2.9883  -2.1737  0.3737
H       1.7074  -2.6290  -0.7317
H       -2.9891  -0.4883  -0.9169
H       -2.9904  -2.1982  -0.5588
H       1.8215  1.0222  -1.4419
H       1.2054  -0.2327  -2.2317
H       -1.9121  0.8578  1.3995
H       -1.1098  -0.1783  2.3275
H       -1.9918  -2.0147  1.4608
H       -3.3720  -0.9636  1.4172
H       0.5546  -2.4256  1.0425
H       1.4316  -1.2517  1.7617
H       3.2133  -1.0956  -1.5681
H       3.1065  -0.1113  -0.1433
H       -0.7910  -2.3140  -1.0691
H       -1.2060  -1.0893  -2.0331
