27

Co      0.0718  0.0306  0.0040
Cl      -1.0897  1.5933  -1.2165
Cl      1.1300  1.3886  1.3359
C       2.6713  -0.6885  -0.8278
C       2.0964  -1.9259  -0.0940
C       -2.5212  -1.3368  -0.4427
C       -2.4856  -1.1617  1.0994
N       1.4924  0.0694  -1.3266
N       1.0620  -1.4194  0.8590
N       -1.1510  -1.3186  -1.0920
N       -1.5493  -0.0421  1.4327
H       2.9515  -2.5069  0.2620
H       1.5116  -2.5465  -0.7706
H       -2.9686  -0.4817  -0.9357
H       -3.1632  -2.2062  -0.5863
H       1.7946  1.0139  -1.5992
H       1.3665  -0.3765  -2.2446
H       -2.0723  0.8189  1.3591
H       -1.3155  -0.1023  2.4181
H       -2.0973  -2.0199  1.6399
H       -3.5311  -1.0306  1.3987
H       0.5449  -2.2037  1.2196
H       1.6516  -1.1439  1.6492
H       3.4545  -1.0762  -1.4979
H       3.1163  0.0223  -0.1389
H       -0.9431  -2.3112  -1.2676
H       -1.3287  -0.9527  -2.0229
