27

Co      -0.0233  -0.0301  0.0129
Cl      -1.1237  1.6544  -1.2397
Cl      1.1916  1.4842  1.3964
C       2.7806  -0.7318  -0.8084
C       2.1685  -1.9659  -0.0808
C       -2.6059  -1.3470  -0.4598
C       -2.4828  -1.2243  1.0813
N       1.5752  0.0775  -1.4163
N       1.1259  -1.4885  0.8402
N       -1.1824  -1.2557  -0.9553
N       -1.5190  -0.0413  1.3075
H       2.8672  -2.6819  0.3888
H       1.6371  -2.5047  -0.8833
H       -3.0964  -0.4481  -0.8162
H       -3.1164  -2.2158  -0.8714
H       1.7838  1.0615  -1.4743
H       1.3825  -0.2315  -2.3492
H       -1.9937  0.8377  1.1930
H       -1.1482  -0.0343  2.2443
H       -2.0724  -2.1003  1.5725
H       -3.4360  -1.0062  1.5405
H       0.5928  -2.2566  1.2028
H       1.5516  -1.0247  1.6247
H       3.3783  -1.1249  -1.6250
H       3.3902  -0.0603  -0.2153
H       -0.7595  -2.1724  -0.9434
H       -1.1775  -0.9392  -1.9057
