27

Co      -0.0611  -0.0513  -0.0216
Cl      -1.1133  1.6791  -1.2417
Cl      1.2128  1.5301  1.4240
C       2.7057  -0.7459  -0.7831
C       2.1862  -1.9724  -0.1461
C       -2.5224  -1.2812  -0.4262
C       -2.4211  -1.1824  1.0551
N       1.5137  -0.0031  -1.2891
N       1.0938  -1.4977  0.7689
N       -1.1142  -1.3230  -0.9370
N       -1.4827  -0.0736  1.3053
H       2.8537  -2.4733  0.5829
H       1.8742  -2.7024  -0.8942
H       -3.0763  -0.4246  -0.7692
H       -2.9536  -2.1871  -0.8739
H       1.6433  1.0036  -1.2443
H       1.0858  -0.2139  -2.1817
H       -1.8553  0.8479  1.1372
H       -1.0415  -0.0475  2.2123
H       -2.0608  -2.1223  1.4507
H       -3.3409  -0.9343  1.5566
H       0.5431  -2.2537  1.1159
H       1.3755  -0.8903  1.5553
H       3.2818  -0.8471  -1.7110
H       3.2925  -0.1932  -0.0643
H       -0.6121  -2.2059  -0.8064
H       -1.0594  -1.0474  -1.9008
