27

Co      0.0012  0.0328  0.0108
Cl      -1.0809  1.6089  -1.2151
Cl      1.1066  1.3617  1.3074
C       2.6005  -0.7085  -0.7982
C       2.0855  -1.8705  -0.0697
C       -2.4294  -1.2638  -0.4546
C       -2.3881  -1.1538  1.0723
N       1.5049  0.0790  -1.3552
N       1.0753  -1.5333  0.8275
N       -1.0538  -1.3314  -1.0119
N       -1.5035  -0.0047  1.4265
H       3.0098  -2.4005  0.2326
H       1.5764  -2.5137  -0.7705
H       -2.7922  -0.3533  -0.9288
H       -3.1330  -2.0802  -0.6499
H       1.8465  1.0161  -1.5756
H       1.4404  -0.3257  -2.3039
H       -2.0560  0.8440  1.4255
H       -1.2145  -0.1018  2.3849
H       -1.9379  -2.0079  1.5743
H       -3.4347  -1.0924  1.3988
H       0.6180  -2.3866  1.1114
H       1.6014  -1.2935  1.6736
H       3.3221  -1.2508  -1.4594
H       3.1356  0.0101  -0.1977
H       -0.8172  -2.3118  -0.9586
H       -1.1486  -1.1601  -2.0081
