27

Co      -0.0233  -0.0359  0.0100
Cl      -1.0926  1.6204  -1.2198
Cl      1.1614  1.4523  1.3690
C       2.6967  -0.7036  -0.8416
C       2.1124  -1.8990  -0.0998
C       -2.5191  -1.2955  -0.4412
C       -2.4232  -1.1615  1.0628
N       1.5577  0.0797  -1.3970
N       1.0394  -1.4962  0.8707
N       -1.1161  -1.2641  -0.9698
N       -1.4748  -0.0508  1.3188
H       2.8849  -2.4529  0.4087
H       1.6516  -2.5697  -0.8125
H       -3.0474  -0.4623  -0.8690
H       -3.0086  -2.2095  -0.7413
H       1.7628  1.0635  -1.4173
H       1.3278  -0.1870  -2.3346
H       -1.9221  0.8405  1.1932
H       -1.1293  -0.0504  2.2588
H       -2.0235  -2.0616  1.5112
H       -3.3837  -0.9721  1.5125
H       0.5391  -2.3115  1.1684
H       1.4534  -1.0886  1.6896
H       3.3629  -1.0558  -1.6182
H       3.2524  -0.0637  -0.1817
H       -0.7390  -2.1927  -0.9773
H       -1.1367  -0.9405  -1.9167
