27

Co      0.0609  -0.0068  0.0205
Cl      -1.1204  1.6611  -1.2499
Cl      1.1271  1.3998  1.3231
C       2.6038  -0.7336  -0.8020
C       2.1262  -1.8961  -0.0637
C       -2.5055  -1.3083  -0.4399
C       -2.4408  -1.1653  1.0801
N       1.4654  0.0666  -1.2327
N       1.0928  -1.4660  0.7644
N       -1.1271  -1.3232  -1.0223
N       -1.5050  -0.0429  1.3649
H       3.0347  -2.3746  0.3170
H       1.6507  -2.5925  -0.7351
H       -2.9133  -0.4288  -0.9175
H       -3.1685  -2.1585  -0.6189
H       1.8114  1.0075  -1.4328
H       1.3535  -0.2945  -2.1789
H       -2.0296  0.8121  1.2678
H       -1.2766  -0.0702  2.3521
H       -2.0376  -2.0214  1.6140
H       -3.4711  -1.0275  1.4083
H       0.5966  -2.2796  1.0836
H       1.6244  -1.1980  1.5949
H       3.2553  -1.2295  -1.5346
H       3.1959  -0.0392  -0.2203
H       -0.9116  -2.3114  -1.0850
H       -1.2617  -1.0577  -1.9893
