27

Co      0.0333  -0.0049  0.0564
Cl      -1.1055  1.6507  -1.2435
Cl      1.1027  1.3566  1.3031
C       2.6489  -0.6594  -0.8042
C       2.0527  -1.8797  -0.1171
C       -2.4656  -1.2917  -0.4630
C       -2.3666  -1.1168  1.0498
N       1.5003  0.0682  -1.3842
N       1.0539  -1.4673  0.9191
N       -1.1027  -1.3948  -1.0930
N       -1.4511  -0.0065  1.4085
H       2.8159  -2.5196  0.3054
H       1.5083  -2.4668  -0.8618
H       -2.9381  -0.4284  -0.8958
H       -3.0713  -2.1576  -0.6850
H       1.6863  1.0385  -1.5728
H       1.1937  -0.3459  -2.2569
H       -1.8919  0.8937  1.3207
H       -1.1261  -0.0699  2.3531
H       -1.9725  -2.0166  1.5024
H       -3.3540  -0.9647  1.4572
H       0.5044  -2.2609  1.1874
H       1.5072  -1.1232  1.7455
H       3.3613  -0.9696  -1.5583
H       3.1505  -0.0157  -0.1067
H       -0.8062  -2.3488  -1.1619
H       -1.1505  -1.0129  -2.0167
