27

Co      0.0358  0.0257  0.0521
Cl      -1.0873  1.5950  -1.2181
Cl      1.1275  1.3865  1.3268
C       2.7162  -0.6903  -0.8429
C       2.0916  -1.8972  -0.1044
C       -2.5550  -1.3500  -0.4669
C       -2.4461  -1.1475  1.0584
N       1.5271  0.0460  -1.3452
N       1.0307  -1.3837  0.8250
N       -1.1655  -1.3014  -1.0421
N       -1.4630  -0.0590  1.3436
H       2.9061  -2.5103  0.2818
H       1.5077  -2.5080  -0.7962
H       -3.0369  -0.5328  -0.9894
H       -3.1490  -2.2584  -0.5789
H       1.8050  0.9954  -1.6292
H       1.4015  -0.4189  -2.2560
H       -1.9770  0.8111  1.2927
H       -1.2241  -0.1243  2.3243
H       -2.0447  -2.0180  1.5709
H       -3.4439  -0.9856  1.4434
H       0.5251  -2.1800  1.1722
H       1.6208  -1.1307  1.6275
H       3.4890  -1.1181  -1.5104
H       3.1785  0.0250  -0.1716
H       -0.9375  -2.2856  -1.1660
H       -1.2812  -0.9636  -1.9818
