27

Co      0.0067  0.0359  0.0211
Cl      -1.0842  1.6077  -1.2155
Cl      1.1530  1.4242  1.3479
C       2.6703  -0.7217  -0.8108
C       2.1571  -1.9544  -0.1114
C       -2.5379  -1.3280  -0.4623
C       -2.3923  -1.1322  1.0415
N       1.4619  0.0383  -1.2326
N       1.0833  -1.4473  0.8000
N       -1.1801  -1.4126  -1.1048
N       -1.4510  -0.0274  1.3646
H       2.9236  -2.4648  0.4518
H       1.7255  -2.6587  -0.8073
H       -3.0423  -0.4881  -0.9037
H       -3.1260  -2.2158  -0.6581
H       1.6953  1.0046  -1.3985
H       1.1162  -0.3133  -2.1109
H       -1.8985  0.8716  1.3202
H       -1.0944  -0.1135  2.2980
H       -2.0038  -2.0311  1.4959
H       -3.3601  -0.9494  1.4768
H       0.5204  -2.2093  1.1246
H       1.5175  -1.0401  1.6065
H       3.2982  -0.9490  -1.6585
H       3.2330  -0.1027  -0.1285
H       -0.8542  -2.3578  -1.1290
H       -1.2512  -1.0881  -2.0499
