27

Co      -0.0339  0.0093  -0.0468
Cl      -1.0940  1.6130  -1.2165
Cl      1.1939  1.4933  1.3932
C       2.7656  -0.7422  -0.8619
C       2.2669  -2.0891  -0.0499
C       -2.5783  -1.3410  -0.4529
C       -2.4897  -1.2129  1.1077
N       1.4752  0.1316  -1.2892
N       1.0827  -1.5570  0.8535
N       -1.1505  -1.2625  -0.9832
N       -1.5143  -0.0324  1.3518
H       3.0029  -2.6198  0.5509
H       1.8384  -2.7848  -0.7585
H       -3.0652  -0.4463  -0.8248
H       -3.0917  -2.2112  -0.8595
H       1.7028  1.1203  -1.2401
H       1.2313  -0.0429  -2.2526
H       -1.9907  0.8479  1.2833
H       -1.1011  -0.0551  2.2721
H       -2.1016  -2.0886  1.6080
H       -3.4535  -0.9815  1.5390
H       0.5196  -2.3045  1.2244
H       1.4860  -1.0708  1.6423
H       3.3169  -0.9564  -1.7779
H       3.3749  -0.0951  -0.2390
H       -0.7073  -2.1699  -0.9423
H       -1.1844  -0.9857  -1.9493
