27

Co      0.0474  -0.0166  0.0336
Cl      -1.0894  1.6236  -1.2335
Cl      1.0899  1.3494  1.2887
C       2.6011  -0.6566  -0.8365
C       2.0655  -1.8965  -0.0661
C       -2.4611  -1.3096  -0.4611
C       -2.3945  -1.1084  1.0691
N       1.4304  0.1150  -1.3065
N       1.0037  -1.4635  0.8915
N       -1.0673  -1.2710  -1.0302
N       -1.3985  -0.0386  1.3505
H       2.9492  -2.4321  0.2825
H       1.5101  -2.5556  -0.7297
H       -2.9248  -0.4868  -0.9875
H       -3.0578  -2.2113  -0.5893
H       1.7064  1.0697  -1.4857
H       1.3167  -0.2551  -2.2537
H       -1.8917  0.8419  1.2964
H       -1.1457  -0.0979  2.3224
H       -2.0253  -1.9793  1.6036
H       -3.4047  -0.9206  1.4187
H       0.5189  -2.2799  1.2193
H       1.5763  -1.2119  1.7079
H       3.3409  -1.0756  -1.5322
H       3.0883  0.0504  -0.1864
H       -0.8402  -2.2499  -1.1393
H       -1.1877  -0.9432  -1.9741
