27

Co      0.0329  -0.0111  0.0452
Cl      -1.0715  1.5963  -1.2101
Cl      1.1197  1.4019  1.3261
C       2.5726  -0.6941  -0.8125
C       2.0391  -1.8027  -0.0644
C       -2.4616  -1.2972  -0.4569
C       -2.3553  -1.1085  1.0399
N       1.5068  0.1027  -1.3803
N       1.0106  -1.5004  0.8282
N       -1.1255  -1.4104  -1.1068
N       -1.4419  0.0018  1.3987
H       2.8563  -2.3196  0.4023
H       1.6203  -2.4842  -0.7920
H       -2.9375  -0.4402  -0.8866
H       -3.0834  -2.1617  -0.6631
H       1.7572  1.0615  -1.5044
H       1.2154  -0.2401  -2.2772
H       -1.8762  0.9017  1.3407
H       -1.1034  -0.0897  2.3326
H       -1.9782  -1.9974  1.5228
H       -3.3514  -0.9390  1.4233
H       0.4325  -2.3323  0.9526
H       1.3572  -1.2271  1.7502
H       3.1550  -1.1934  -1.6005
H       3.2400  -0.0494  -0.2510
H       -0.8262  -2.3613  -1.1722
H       -1.1899  -1.0444  -2.0385
