27

Co      -0.0351  -0.0306  -0.0612
Cl      -1.0668  1.5891  -1.1840
Cl      1.2046  1.5209  1.4189
C       2.6122  -0.7195  -0.8113
C       2.1655  -1.9743  -0.0863
C       -2.5365  -1.2836  -0.4411
C       -2.3955  -1.1668  1.0570
N       1.4247  0.0831  -1.2407
N       1.0558  -1.5289  0.8153
N       -1.1302  -1.2898  -0.9628
N       -1.4361  -0.0529  1.2508
H       2.9889  -2.3902  0.4941
H       1.8035  -2.7513  -0.7541
H       -3.0417  -0.4303  -0.8560
H       -3.0519  -2.1802  -0.7530
H       1.6621  1.0681  -1.2088
H       1.1776  -0.1049  -2.1969
H       -1.8932  0.8340  1.1316
H       -1.0538  -0.0302  2.1762
H       -1.9809  -2.0648  1.4886
H       -3.3357  -0.9670  1.5461
H       0.5689  -2.3162  1.1977
H       1.4625  -1.0340  1.5958
H       3.2345  -0.9388  -1.6634
H       3.1737  -0.0978  -0.1339
H       -0.7411  -2.2143  -0.8549
H       -1.1592  -1.0890  -1.9544
