27

Co      0.0202  0.0276  0.0040
Cl      -1.0961  1.6214  -1.2183
Cl      1.1188  1.3701  1.3058
C       2.6261  -0.7130  -0.8035
C       2.1595  -1.9667  -0.0951
C       -2.5001  -1.2686  -0.4502
C       -2.3684  -1.1472  1.0572
N       1.4326  0.0801  -1.2075
N       1.1173  -1.4917  0.8568
N       -1.1264  -1.3714  -1.0600
N       -1.4782  0.0006  1.3588
H       2.9696  -2.4525  0.4206
H       1.7200  -2.6829  -0.7759
H       -2.9598  -0.3832  -0.8529
H       -3.1068  -2.1215  -0.7167
H       1.6782  1.0491  -1.3036
H       1.1032  -0.2063  -2.1121
H       -1.9548  0.8789  1.2446
H       -1.1378  -0.0123  2.2993
H       -1.9232  -2.0393  1.4792
H       -3.3430  -1.0244  1.5093
H       0.5838  -2.2599  1.2167
H       1.5636  -1.0521  1.6413
H       3.2402  -0.9272  -1.6676
H       3.2007  -0.1066  -0.1231
H       -0.7999  -2.3156  -1.0246
H       -1.1813  -1.0960  -2.0234
