27

Co      0.0000  0.0000  0.0000
Cl      -1.0884  1.6120  -1.2155
Cl      1.1572  1.4393  1.3605
C       2.6704  -0.7060  -0.8437
C       2.1393  -1.9440  -0.0823
C       -2.5275  -1.3167  -0.4581
C       -2.4247  -1.1551  1.0695
N       1.4802  0.0785  -1.2911
N       1.0470  -1.4803  0.8373
N       -1.1318  -1.2995  -1.0162
N       -1.4607  -0.0453  1.3295
H       3.0161  -2.4547  0.3186
H       1.6226  -2.6287  -0.7405
H       -2.9723  -0.4679  -0.9636
H       -3.1456  -2.1995  -0.6134
H       1.7794  1.0353  -1.4447
H       1.3913  -0.2605  -2.2516
H       -1.9873  0.8160  1.2784
H       -1.1857  -0.0893  2.2979
H       -1.9985  -2.0183  1.5694
H       -3.4237  -1.0148  1.4604
H       0.5886  -2.2962  1.2122
H       1.6128  -1.1749  1.6301
H       3.4043  -1.0998  -1.5505
H       3.1599  -0.0005  -0.1856
H       -0.8854  -2.2786  -1.0464
H       -1.2407  -1.0538  -1.9890
