27

Co      0.0486  0.0341  0.0456
Cl      -1.1100  1.6383  -1.2436
Cl      1.1167  1.3763  1.3091
C       2.7133  -0.7240  -0.8431
C       2.1417  -1.9197  -0.1054
C       -2.5015  -1.3057  -0.4405
C       -2.4441  -1.1610  1.0784
N       1.5416  0.0516  -1.3206
N       1.0533  -1.4485  0.8128
N       -1.1396  -1.4023  -1.0881
N       -1.5556  -0.0211  1.4616
H       2.8912  -2.4538  0.4509
H       1.6964  -2.6042  -0.8110
H       -2.9626  -0.4278  -0.8563
H       -3.1144  -2.1602  -0.6965
H       1.7737  1.0143  -1.4971
H       1.1984  -0.3178  -2.1955
H       -2.0149  0.8618  1.3477
H       -1.2554  -0.0728  2.4203
H       -2.0535  -2.0536  1.5460
H       -3.4544  -1.0249  1.4440
H       0.4412  -2.2258  1.0303
H       1.4564  -1.1294  1.6796
H       3.3438  -1.0379  -1.6596
H       3.2949  -0.0961  -0.1873
H       -0.8356  -2.3561  -1.1751
H       -1.2177  -1.0203  -2.0140
