27

Co      0.0245  0.0716  -0.0021
Cl      -1.0767  1.6005  -1.2109
Cl      1.1024  1.3487  1.2990
C       2.6200  -0.6969  -0.7954
C       2.1264  -1.9552  -0.1029
C       -2.4464  -1.2667  -0.4501
C       -2.3863  -1.1475  1.0695
N       1.4493  0.0683  -1.2946
N       1.0820  -1.5240  0.8675
N       -1.0789  -1.4060  -1.0702
N       -1.5108  -0.0021  1.4583
H       2.9361  -2.4658  0.3859
H       1.6806  -2.6392  -0.8078
H       -2.8709  -0.3618  -0.8592
H       -3.0885  -2.0940  -0.7245
H       1.6964  1.0263  -1.4826
H       1.1187  -0.3094  -2.1726
H       -1.9883  0.8802  1.4180
H       -1.1468  -0.0932  2.3874
H       -1.9735  -2.0430  1.5121
H       -3.3964  -1.0382  1.4511
H       0.5132  -2.3032  1.1458
H       1.5075  -1.1566  1.6975
H       3.2981  -0.9269  -1.6012
H       3.1350  -0.0669  -0.0910
H       -0.7520  -2.3490  -1.0088
H       -1.1384  -1.1592  -2.0412
