27

Co      0.0587  0.0524  0.0235
Cl      -1.0520  1.5483  -1.1899
Cl      1.0931  1.3461  1.2951
C       2.5915  -0.6613  -0.8078
C       2.0537  -1.8903  -0.0868
C       -2.5083  -1.3249  -0.4575
C       -2.4009  -1.1184  1.0439
N       1.4461  0.0976  -1.3458
N       1.0223  -1.4654  0.8958
N       -1.1267  -1.3115  -1.0449
N       -1.4122  -0.0517  1.3455
H       2.8474  -2.4347  0.3868
H       1.5756  -2.5591  -0.7933
H       -3.0608  -0.5231  -0.9142
H       -3.0109  -2.2526  -0.6730
H       1.6746  1.0586  -1.5314
H       1.1141  -0.2935  -2.2178
H       -1.8414  0.8592  1.3007
H       -1.0614  -0.1400  2.2735
H       -2.0615  -2.0300  1.5197
H       -3.3677  -0.8795  1.4676
H       0.4372  -2.2447  1.1426
H       1.4517  -1.1296  1.7392
H       3.2734  -0.9564  -1.5939
H       3.1202  -0.0241  -0.1241
H       -0.7756  -2.2405  -1.0916
H       -1.1883  -0.9577  -1.9806
