27

Co      -0.0074  0.0193  0.0521
Cl      -1.0848  1.6040  -1.2250
Cl      1.1040  1.3451  1.2858
C       2.6001  -0.7143  -0.8185
C       2.1017  -1.8589  -0.0498
C       -2.4787  -1.3289  -0.4739
C       -2.3514  -1.0833  1.0397
N       1.4974  0.1153  -1.2787
N       1.1300  -1.5040  0.8780
N       -1.1504  -1.3444  -1.1493
N       -1.4114  0.0189  1.3879
H       3.0371  -2.3981  0.2243
H       1.5485  -2.5050  -0.7230
H       -2.9594  -0.5161  -0.9998
H       -3.1357  -2.2234  -0.5115
H       1.8456  1.0545  -1.4419
H       1.3997  -0.2279  -2.2358
H       -1.9244  0.8972  1.4559
H       -1.1023  -0.1487  2.3343
H       -1.9386  -1.9343  1.5761
H       -3.3761  -0.9527  1.3850
H       0.7041  -2.3573  1.2062
H       1.6884  -1.2259  1.6897
H       3.2401  -1.2833  -1.5419
H       3.2290  -0.0235  -0.2660
H       -0.9287  -2.3271  -1.2776
H       -1.3042  -1.0005  -2.0853
