27

Co      0.0687  0.0277  0.0209
Cl      -1.1100  1.6307  -1.2430
Cl      1.1097  1.3574  1.3063
C       2.6197  -0.7255  -0.7678
C       2.0906  -1.8715  -0.0946
C       -2.4908  -1.3184  -0.4202
C       -2.4737  -1.1601  1.0863
N       1.5297  0.0532  -1.3290
N       1.1511  -1.4603  0.8326
N       -1.1407  -1.3229  -1.0765
N       -1.5702  -0.0377  1.4560
H       2.9003  -2.4449  0.3317
H       1.6090  -2.5003  -0.8304
H       -3.0029  -0.4664  -0.8260
H       -3.0475  -2.1986  -0.6926
H       1.8057  1.0043  -1.5189
H       1.2361  -0.3357  -2.2108
H       -2.0162  0.8551  1.3633
H       -1.2522  -0.1120  2.4055
H       -2.1351  -2.0504  1.6049
H       -3.5052  -0.9778  1.3954
H       0.5912  -2.2438  1.1128
H       1.5728  -1.0758  1.6553
H       3.2505  -1.1269  -1.5520
H       3.2278  -0.0996  -0.1395
H       -0.8073  -2.2642  -1.2025
H       -1.2574  -0.9125  -1.9920
