27

Co      -0.0492  -0.0140  -0.0399
Cl      -1.1115  1.6655  -1.2393
Cl      1.2040  1.5055  1.4176
C       2.6600  -0.7145  -0.7820
C       2.1608  -1.9882  -0.1176
C       -2.5480  -1.3247  -0.4407
C       -2.4435  -1.1727  1.0591
N       1.4999  0.0522  -1.3424
N       1.1531  -1.5916  0.9210
N       -1.1369  -1.2751  -0.9558
N       -1.4536  -0.0873  1.2921
H       2.9919  -2.5420  0.3158
H       1.6819  -2.6388  -0.8353
H       -3.0910  -0.5006  -0.8822
H       -3.0192  -2.2501  -0.7399
H       1.7266  1.0343  -1.3745
H       1.2924  -0.2175  -2.2839
H       -1.8970  0.8165  1.2552
H       -1.0374  -0.1468  2.2071
H       -2.0756  -2.0815  1.5151
H       -3.3948  -0.9404  1.5117
H       0.7228  -2.4023  1.3412
H       1.6170  -1.0839  1.6637
H       3.3854  -0.9417  -1.5526
H       3.1359  -0.0788  -0.0523
H       -0.7204  -2.1916  -0.8678
H       -1.1624  -1.0484  -1.9341
