27

Co      0.0662  0.0159  0.0292
Cl      -1.0938  1.6077  -1.2371
Cl      1.0970  1.3481  1.2877
C       2.6025  -0.7314  -0.7878
C       2.0989  -1.8627  -0.0721
C       -2.4884  -1.3355  -0.4192
C       -2.4723  -1.1352  1.0799
N       1.5008  0.0703  -1.2761
N       1.1071  -1.4304  0.7875
N       -1.1290  -1.2587  -1.0514
N       -1.5085  -0.0573  1.4132
H       2.9052  -2.3656  0.4277
H       1.6746  -2.5600  -0.7781
H       -3.0622  -0.5393  -0.8539
H       -2.9682  -2.2696  -0.6696
H       1.7797  1.0238  -1.4126
H       1.1930  -0.2605  -2.1725
H       -1.9255  0.8517  1.3318
H       -1.1876  -0.1389  2.3583
H       -2.1864  -2.0329  1.6288
H       -3.4885  -0.8755  1.3891
H       0.5334  -2.2094  1.0541
H       1.5053  -1.0477  1.6263
H       3.1688  -1.1468  -1.6200
H       3.2723  -0.1173  -0.1991
H       -0.7681  -2.1858  -1.2115
H       -1.2509  -0.8137  -1.9562
