27

Co      0.0106  0.0627  0.0019
Cl      -1.0654  1.5571  -1.1814
Cl      1.1286  1.3823  1.3256
C       2.6016  -0.7223  -0.8076
C       2.1063  -1.8800  -0.0596
C       -2.5155  -1.2900  -0.4623
C       -2.3859  -1.1610  1.0537
N       1.5079  0.0997  -1.3240
N       1.1164  -1.5306  0.8492
N       -1.1564  -1.3560  -1.0609
N       -1.5053  0.0045  1.3694
H       3.0492  -2.3971  0.2328
H       1.5887  -2.5389  -0.7408
H       -2.9126  -0.3962  -0.9326
H       -3.2196  -2.1203  -0.6113
H       1.8803  1.0334  -1.5311
H       1.4242  -0.2801  -2.2717
H       -2.0750  0.8455  1.3688
H       -1.2117  -0.0839  2.3246
H       -1.8921  -2.0088  1.5292
H       -3.4077  -1.1145  1.4450
H       0.6621  -2.3777  1.1539
H       1.6533  -1.2698  1.6780
H       3.2927  -1.2654  -1.4960
H       3.1741  -0.0151  -0.2205
H       -0.9269  -2.3404  -1.0283
H       -1.2689  -1.1712  -2.0542
