27

Co      0.0457  0.0263  0.0344
Cl      -1.1075  1.6317  -1.2370
Cl      1.1143  1.3784  1.3084
C       2.6329  -0.7406  -0.7970
C       2.1138  -1.8664  -0.0807
C       -2.5225  -1.3023  -0.4299
C       -2.4486  -1.1800  1.0620
N       1.5451  0.0611  -1.3350
N       1.1015  -1.4949  0.7948
N       -1.1337  -1.2993  -0.9689
N       -1.5208  -0.0600  1.3572
H       2.9265  -2.3770  0.4069
H       1.7037  -2.5573  -0.8038
H       -3.0222  -0.4470  -0.8388
H       -3.0504  -2.1900  -0.7401
H       1.8253  1.0170  -1.4682
H       1.2614  -0.2738  -2.2346
H       -1.9793  0.8237  1.2434
H       -1.2026  -0.0902  2.3054
H       -2.0702  -2.0791  1.5341
H       -3.4351  -0.9936  1.4652
H       0.5389  -2.3043  1.0102
H       1.4802  -1.1556  1.6662
H       3.2216  -1.1845  -1.6011
H       3.2878  -0.1124  -0.2074
H       -0.7707  -2.2294  -0.9567
H       -1.1722  -1.0041  -1.9261
