27

Co      -0.0227  -0.0408  0.0009
Cl      -1.0699  1.5806  -1.1908
Cl      1.1792  1.4810  1.3937
C       2.6844  -0.7013  -0.8084
C       2.0909  -1.8823  -0.1260
C       -2.5557  -1.2958  -0.4331
C       -2.4153  -1.1655  1.0392
N       1.5491  0.0519  -1.4007
N       1.0320  -1.4482  0.8364
N       -1.1483  -1.2563  -0.9424
N       -1.4525  -0.0720  1.2543
H       2.7477  -2.4440  0.5474
H       1.7177  -2.5715  -0.8817
H       -3.1815  -0.4895  -0.7872
H       -2.9183  -2.2492  -0.8465
H       1.6711  1.0563  -1.3659
H       1.1244  -0.1897  -2.2842
H       -1.8178  0.8535  1.0605
H       -1.0357  -0.0264  2.1634
H       -2.0522  -2.1077  1.4318
H       -3.3157  -0.8952  1.5811
H       0.4558  -2.2153  1.1139
H       1.3112  -0.9036  1.6526
H       3.2777  -0.9130  -1.6910
H       3.2849  -0.1356  -0.1161
H       -0.6469  -2.1354  -0.9053
H       -1.0956  -0.8855  -1.8749
