27

Co      -0.0523  -0.0228  -0.0239
Cl      -1.0895  1.6331  -1.2171
Cl      1.1868  1.4901  1.3901
C       2.7101  -0.7074  -0.8726
C       2.2056  -2.0230  -0.1031
C       -2.5107  -1.2826  -0.4559
C       -2.3797  -1.1462  1.0636
N       1.4599  0.0898  -1.2618
N       1.0231  -1.5391  0.8783
N       -1.1129  -1.3600  -1.0308
N       -1.4435  -0.0221  1.3335
H       2.9832  -2.4709  0.5090
H       1.7984  -2.7868  -0.7559
H       -2.9889  -0.4205  -0.8914
H       -3.0764  -2.1637  -0.7236
H       1.6498  1.0838  -1.2295
H       1.1744  -0.1004  -2.2093
H       -1.9013  0.8664  1.2367
H       -1.0660  -0.0329  2.2638
H       -1.9480  -2.0441  1.4792
H       -3.3304  -0.9886  1.5414
H       0.5162  -2.3272  1.2338
H       1.4508  -1.0878  1.6703
H       3.3652  -0.8453  -1.7309
H       3.2219  -0.0866  -0.1505
H       -0.7571  -2.2979  -0.9758
H       -1.1421  -1.1005  -2.0001
