27

Co      -0.0170  0.0000  0.0121
Cl      -1.0884  1.6120  -1.2155
Cl      1.1572  1.4417  1.3605
C       2.6756  -0.7057  -0.8331
C       2.1251  -1.9180  -0.0956
C       -2.5445  -1.3125  -0.4517
C       -2.4105  -1.1551  1.0459
N       1.5323  0.0840  -1.3696
N       1.0648  -1.5258  0.8897
N       -1.1457  -1.2958  -0.9868
N       -1.4452  -0.0550  1.2997
H       2.9208  -2.4571  0.3939
H       1.6664  -2.5972  -0.8019
H       -3.0812  -0.4898  -0.8923
H       -3.0403  -2.2328  -0.7180
H       1.7565  1.0614  -1.4194
H       1.2771  -0.1975  -2.2944
H       -1.8947  0.8405  1.2228
H       -1.0786  -0.0927  2.2292
H       -2.0109  -2.0595  1.4859
H       -3.3583  -0.9552  1.5210
H       0.5602  -2.3411  1.1811
H       1.4851  -1.1288  1.7107
H       3.3375  -1.0346  -1.6225
H       3.2334  -0.0700  -0.1690
H       -0.7665  -2.2223  -0.9603
H       -1.1641  -1.0039  -1.9442
