27

Co      0.0202  0.0238  0.0073
Cl      -1.0734  1.6069  -1.2179
Cl      1.1025  1.3633  1.2951
C       2.5286  -0.7140  -0.7921
C       2.1143  -1.9013  -0.0442
C       -2.4354  -1.2948  -0.4606
C       -2.3616  -1.1078  1.0580
N       1.3891  0.0968  -1.1951
N       1.0706  -1.5131  0.7846
N       -1.0741  -1.3409  -1.0615
N       -1.4100  -0.0115  1.3815
H       3.0635  -2.3230  0.3282
H       1.6719  -2.6362  -0.6979
H       -2.8489  -0.4355  -0.9679
H       -3.1127  -2.1520  -0.5823
H       1.7458  1.0331  -1.3817
H       1.2663  -0.2455  -2.1471
H       -1.9247  0.8607  1.4117
H       -1.1097  -0.1374  2.3322
H       -1.9757  -1.9668  1.5983
H       -3.3924  -0.9571  1.3804
H       0.5938  -2.3390  1.0980
H       1.5918  -1.2437  1.6216
H       3.1626  -1.1858  -1.5469
H       3.1282  -0.0224  -0.2167
H       -0.8420  -2.3178  -1.0609
H       -1.2092  -1.1284  -2.0448
