27

Co      0.0537  0.0233  0.0352
Cl      -1.0988  1.6357  -1.2327
Cl      1.0960  1.3457  1.2939
C       2.5422  -0.6784  -0.7602
C       2.0517  -1.8715  -0.0748
C       -2.4949  -1.3094  -0.4693
C       -2.3726  -1.1295  1.0401
N       1.4264  0.0764  -1.2927
N       1.1095  -1.4978  0.8677
N       -1.1124  -1.3272  -1.0203
N       -1.4021  -0.0399  1.3149
H       2.9824  -2.4446  0.1714
H       1.4867  -2.4790  -0.7826
H       -2.9226  -0.4532  -0.9729
H       -3.1443  -2.1774  -0.6008
H       1.7545  1.0131  -1.5713
H       1.3202  -0.3754  -2.2130
H       -1.9214  0.8311  1.3017
H       -1.1298  -0.1262  2.2773
H       -1.9642  -1.9988  1.5487
H       -3.3748  -0.9762  1.4262
H       0.6516  -2.3242  1.2111
H       1.6904  -1.2357  1.6727
H       3.2806  -1.1602  -1.4320
H       3.0508  0.0312  -0.1307
H       -0.8877  -2.3079  -1.0126
H       -1.2091  -1.1101  -2.0010
