27

Co      0.0722  0.0572  0.0070
Cl      -1.0747  1.5664  -1.1868
Cl      1.1164  1.3715  1.3128
C       2.5574  -0.7277  -0.8001
C       2.0848  -1.8397  -0.1218
C       -2.5220  -1.2551  -0.4151
C       -2.3932  -1.1518  1.0360
N       1.5035  0.0351  -1.2424
N       1.0952  -1.4567  0.8117
N       -1.1720  -1.3815  -1.0425
N       -1.5349  -0.0507  1.3365
H       2.9664  -2.2142  0.3945
H       1.7136  -2.6414  -0.7556
H       -3.0299  -0.4240  -0.8555
H       -3.0985  -2.1483  -0.6043
H       1.8032  0.9851  -1.4094
H       1.1459  -0.3028  -2.1189
H       -2.0072  0.8215  1.1618
H       -1.2621  -0.0373  2.2988
H       -1.9435  -2.0638  1.4157
H       -3.3747  -1.0666  1.4900
H       0.5602  -2.2701  1.0599
H       1.5087  -1.1068  1.6547
H       3.2292  -1.0416  -1.5823
H       3.1294  -0.1428  -0.1005
H       -0.8917  -2.3417  -1.0357
H       -1.2579  -1.1056  -2.0064
