27

Co      -0.0652  -0.0322  -0.0110
Cl      -1.0841  1.6032  -1.2081
Cl      1.2176  1.5253  1.4215
C       2.7754  -0.7097  -0.8439
C       2.2105  -2.0447  -0.0738
C       -2.6339  -1.3863  -0.4840
C       -2.4402  -1.1682  1.0565
N       1.4742  0.1072  -1.3146
N       1.0753  -1.4826  0.8702
N       -1.2074  -1.2415  -0.9989
N       -1.3813  -0.0505  1.2270
H       2.9022  -2.6845  0.4860
H       1.7044  -2.6633  -0.8161
H       -3.2121  -0.5695  -0.9015
H       -3.0733  -2.3286  -0.7983
H       1.6511  1.1063  -1.2923
H       1.2461  -0.1172  -2.2651
H       -1.8201  0.8583  1.1898
H       -0.9525  -0.0890  2.1375
H       -2.0712  -2.0562  1.5519
H       -3.3462  -0.8583  1.5742
H       0.5606  -2.2255  1.3179
H       1.5303  -0.9517  1.6079
H       3.3677  -0.9303  -1.7283
H       3.3468  -0.0541  -0.1996
H       -0.7581  -2.1456  -1.0071
H       -1.2171  -0.9035  -1.9422
