27

Co      0.0486  0.0372  0.0455
Cl      -1.1010  1.6443  -1.2466
Cl      1.1107  1.3763  1.3121
C       2.6329  -0.7216  -0.8043
C       2.0931  -1.8680  -0.0818
C       -2.4538  -1.3148  -0.4543
C       -2.4339  -1.1490  1.0758
N       1.5049  0.0340  -1.3219
N       1.0409  -1.4630  0.7439
N       -1.0942  -1.3992  -1.0656
N       -1.5148  -0.0332  1.4706
H       2.9679  -2.3962  0.2968
H       1.6072  -2.5197  -0.7877
H       -2.8244  -0.4219  -0.9507
H       -3.1751  -2.1393  -0.5998
H       1.8380  0.9640  -1.6471
H       1.3752  -0.4494  -2.2271
H       -2.0362  0.8300  1.4702
H       -1.2650  -0.1636  2.4464
H       -2.0547  -2.0085  1.6240
H       -3.4934  -1.0329  1.3460
H       0.4991  -2.2877  0.9629
H       1.5497  -1.2901  1.6324
H       3.3381  -1.2520  -1.4808
H       3.1779  -0.0015  -0.2090
H       -0.8948  -2.3926  -1.1189
H       -1.2250  -1.1416  -2.0321
