27

Co      -0.0728  -0.0346  0.0023
Cl      -1.0958  1.6197  -1.2259
Cl      1.1887  1.4808  1.3856
C       2.7532  -0.7508  -0.8474
C       2.1883  -1.9432  -0.1044
C       -2.5613  -1.3314  -0.4340
C       -2.4609  -1.1642  1.0615
N       1.5797  0.0513  -1.3189
N       1.0939  -1.4683  0.8126
N       -1.1477  -1.1825  -0.9380
N       -1.4628  -0.0827  1.2756
H       2.9478  -2.4608  0.4708
H       1.7617  -2.6564  -0.7947
H       -3.1735  -0.5599  -0.8855
H       -2.9502  -2.3103  -0.7238
H       1.8000  1.0397  -1.2781
H       1.3643  -0.1478  -2.2802
H       -1.8972  0.8197  1.1884
H       -1.0868  -0.1034  2.2058
H       -2.0967  -2.0690  1.5333
H       -3.4047  -0.9114  1.5191
H       0.6385  -2.2708  1.2137
H       1.5246  -0.9649  1.5766
H       3.3720  -1.0708  -1.6743
H       3.3495  -0.1319  -0.1970
H       -0.7107  -2.0906  -0.9582
H       -1.1788  -0.8462  -1.8803
