27

Co      -0.0392  -0.0369  -0.0440
Cl      -1.0784  1.6021  -1.2053
Cl      1.1687  1.4554  1.3760
C       2.6615  -0.7166  -0.8039
C       2.1485  -1.9570  -0.1051
C       -2.4893  -1.2765  -0.4238
C       -2.4392  -1.1688  1.0841
N       1.4788  0.0589  -1.2823
N       1.0765  -1.4680  0.8154
N       -1.0722  -1.1920  -0.9294
N       -1.4845  -0.0614  1.3125
H       2.9313  -2.4505  0.4537
H       1.7300  -2.6739  -0.7957
H       -3.0273  -0.4426  -0.8379
H       -2.9405  -2.1966  -0.7742
H       1.6955  1.0447  -1.2754
H       1.2555  -0.1672  -2.2359
H       -1.9331  0.8297  1.1780
H       -1.1197  -0.0391  2.2466
H       -2.0624  -2.0694  1.5499
H       -3.4091  -0.9572  1.5052
H       0.6058  -2.2439  1.2540
H       1.5165  -0.9389  1.5593
H       3.3205  -0.9510  -1.6234
H       3.1921  -0.0948  -0.1068
H       -0.6573  -2.1065  -0.8943
H       -1.1145  -0.9159  -1.8930
