27

Co      -0.0545  -0.0765  -0.0253
Cl      -1.0800  1.5922  -1.1928
Cl      1.2079  1.5084  1.4132
C       2.7701  -0.6986  -0.8402
C       2.1880  -2.0260  -0.0801
C       -2.5776  -1.3228  -0.4717
C       -2.4152  -1.1745  1.0824
N       1.4545  0.1079  -1.2835
N       1.0520  -1.4055  0.8319
N       -1.1618  -1.2428  -1.0215
N       -1.4427  0.0024  1.2681
H       2.8496  -2.6723  0.5132
H       1.6777  -2.6423  -0.8214
H       -3.0890  -0.4423  -0.8366
H       -3.0868  -2.2060  -0.8389
H       1.6092  1.1137  -1.2388
H       1.2303  -0.0999  -2.2425
H       -1.9045  0.8878  1.1128
H       -1.0664  0.0621  2.2020
H       -1.9864  -2.0451  1.5591
H       -3.3478  -0.9517  1.5776
H       0.5308  -2.1217  1.3317
H       1.5139  -0.8311  1.5418
H       3.3514  -0.8994  -1.7366
H       3.3401  -0.0487  -0.1908
H       -0.7564  -2.1646  -1.0669
H       -1.1885  -0.8735  -1.9553
