27

Co      -0.0031  0.0000  0.0140
Cl      -1.1086  1.6494  -1.2420
Cl      1.1369  1.4081  1.3309
C       2.6782  -0.7154  -0.8468
C       2.1611  -1.9565  -0.0792
C       -2.5057  -1.3073  -0.4549
C       -2.4232  -1.1536  1.0742
N       1.4849  0.0800  -1.2708
N       1.0672  -1.5006  0.8435
N       -1.1037  -1.2886  -0.9990
N       -1.4623  -0.0438  1.3466
H       3.0457  -2.4562  0.3186
H       1.6491  -2.6490  -0.7327
H       -2.9426  -0.4555  -0.9621
H       -3.1207  -2.1886  -0.6227
H       1.7872  1.0369  -1.4073
H       1.3928  -0.2387  -2.2376
H       -1.9888  0.8176  1.2987
H       -1.1889  -0.0925  2.3166
H       -2.0016  -2.0183  1.5772
H       -3.4284  -1.0148  1.4526
H       0.6167  -2.3227  1.2184
H       1.6346  -1.1967  1.6379
H       3.3934  -1.1092  -1.5692
H       3.1864  -0.0176  -0.1980
H       -0.8511  -2.2646  -1.0168
H       -1.2049  -1.0492  -1.9734
