27

Co      0.0414  0.0547  0.0634
Cl      -1.0837  1.5863  -1.2200
Cl      1.0813  1.3153  1.2633
C       2.6490  -0.6921  -0.8991
C       2.0951  -1.8599  -0.1022
C       -2.4961  -1.3061  -0.4473
C       -2.3862  -1.0863  1.0405
N       1.5441  0.0892  -1.2934
N       1.0357  -1.4661  0.9315
N       -1.1506  -1.3495  -1.1205
N       -1.4581  -0.0366  1.3885
H       3.0346  -2.2884  0.2675
H       1.5629  -2.6167  -0.6776
H       -3.0172  -0.5502  -1.0355
H       -3.1025  -2.2508  -0.4142
H       1.8628  1.0325  -1.4871
H       1.3631  -0.2679  -2.2229
H       -1.9668  0.8356  1.3528
H       -1.2356  -0.1363  2.3698
H       -1.9563  -1.9703  1.4972
H       -3.4009  -1.0006  1.4215
H       0.5814  -2.3304  1.2000
H       1.6206  -1.2736  1.7687
H       3.4321  -1.1067  -1.5678
H       3.1322  -0.0305  -0.1981
H       -0.9803  -2.3507  -1.2938
H       -1.3160  -0.9765  -2.0470
