27

Co      -0.0252  -0.0690  0.0082
Cl      -1.1055  1.6498  -1.2326
Cl      1.1743  1.4762  1.3837
C       2.6728  -0.6963  -0.8361
C       2.1105  -1.9027  -0.0961
C       -2.5191  -1.2974  -0.4448
C       -2.4011  -1.1468  1.0573
N       1.5301  0.0908  -1.3731
N       1.0486  -1.5127  0.8928
N       -1.1234  -1.2843  -0.9937
N       -1.4436  -0.0435  1.2967
H       2.8977  -2.4529  0.3940
H       1.6424  -2.5734  -0.8052
H       -3.0474  -0.4660  -0.8764
H       -3.0215  -2.2114  -0.7247
H       1.7260  1.0800  -1.3566
H       1.3058  -0.1447  -2.3217
H       -1.8799  0.8534  1.1619
H       -1.0962  -0.0339  2.2367
H       -2.0033  -2.0450  1.5076
H       -3.3543  -0.9463  1.5162
H       0.5685  -2.3317  1.2106
H       1.4700  -1.0849  1.6988
H       3.3298  -1.0355  -1.6238
H       3.2341  -0.0600  -0.1780
H       -0.7611  -2.2185  -1.0195
H       -1.1495  -0.9442  -1.9351
