27

Co      0.0057  0.0287  0.0145
Cl      -1.0758  1.6093  -1.2204
Cl      1.1050  1.3681  1.3000
C       2.5338  -0.7112  -0.7890
C       2.0952  -1.8704  -0.0526
C       -2.4376  -1.2905  -0.4518
C       -2.3522  -1.1054  1.0442
N       1.4633  0.1194  -1.3128
N       1.0983  -1.5953  0.8787
N       -1.0930  -1.3741  -1.0812
N       -1.4288  -0.0015  1.4082
H       2.9805  -2.3328  0.3691
H       1.6912  -2.5825  -0.7568
H       -2.9260  -0.4426  -0.8892
H       -3.0320  -2.1657  -0.6723
H       1.7523  1.0738  -1.3907
H       1.1816  -0.1653  -2.2316
H       -1.8714  0.9024  1.4320
H       -1.0295  -0.1481  2.3174
H       -1.9881  -1.9982  1.5319
H       -3.3540  -0.9245  1.4164
H       0.5752  -2.4354  1.0742
H       1.4666  -1.2564  1.7586
H       3.1056  -1.1451  -1.6090
H       3.2017  -0.0845  -0.2124
H       -0.7452  -2.3056  -1.0583
H       -1.1596  -1.0883  -2.0393
