27

Co      0.0552  0.0711  0.0166
Cl      -1.0740  1.5919  -1.2093
Cl      1.1243  1.3990  1.3325
C       2.6288  -0.6893  -0.8049
C       2.0977  -1.9277  -0.1030
C       -2.5393  -1.3285  -0.4554
C       -2.4343  -1.1633  1.0461
N       1.4676  0.0544  -1.3518
N       1.0243  -1.5046  0.8448
N       -1.1376  -1.3628  -0.9909
N       -1.4508  -0.0837  1.3450
H       2.8854  -2.4492  0.4118
H       1.6651  -2.6130  -0.8194
H       -3.0373  -0.4868  -0.9019
H       -3.0770  -2.2239  -0.7164
H       1.7054  1.0126  -1.5801
H       1.1327  -0.3668  -2.2116
H       -1.8965  0.8162  1.2985
H       -1.1006  -0.1661  2.2778
H       -2.0815  -2.0798  1.5014
H       -3.3963  -0.9406  1.4832
H       0.4174  -2.2876  1.0529
H       1.4308  -1.2014  1.7175
H       3.3291  -0.9588  -1.5818
H       3.1323  -0.0425  -0.1054
H       -0.7816  -2.2938  -0.9297
H       -1.1641  -1.1148  -1.9633
