27

Co      -0.0258  -0.0408  0.0149
Cl      -1.0902  1.6180  -1.2173
Cl      1.1590  1.4499  1.3641
C       2.6967  -0.7061  -0.8342
C       2.1173  -1.9039  -0.1047
C       -2.5338  -1.2955  -0.4436
C       -2.4183  -1.1639  1.0530
N       1.5356  0.0625  -1.3578
N       1.0296  -1.4594  0.8290
N       -1.1112  -1.2273  -0.9208
N       -1.4405  -0.0705  1.2623
H       2.8726  -2.4455  0.4430
H       1.6761  -2.5918  -0.8150
H       -3.0793  -0.4770  -0.8764
H       -2.9841  -2.2292  -0.7560
H       1.7333  1.0488  -1.3829
H       1.2984  -0.2042  -2.2929
H       -1.8829  0.8233  1.1171
H       -1.1023  -0.0431  2.2048
H       -2.0235  -2.0714  1.4941
H       -3.3567  -0.9451  1.5370
H       0.5293  -2.2600  1.1610
H       1.4510  -1.0297  1.6331
H       3.3530  -1.0312  -1.6281
H       3.2524  -0.0710  -0.1694
H       -0.7169  -2.1486  -0.8938
H       -1.1097  -0.9307  -1.8775
