27

Co      -0.0134  0.0340  0.0438
Cl      -1.0871  1.6316  -1.2255
Cl      1.1128  1.3705  1.3046
C       2.5661  -0.7177  -0.7914
C       2.0866  -1.8389  -0.1354
C       -2.4548  -1.2549  -0.4454
C       -2.3123  -1.0952  1.0010
N       1.5044  0.0137  -1.2625
N       1.0927  -1.5164  0.8328
N       -1.1061  -1.4128  -1.0413
N       -1.4125  -0.0423  1.3376
H       2.9682  -2.2481  0.3463
H       1.7040  -2.6083  -0.7946
H       -2.9640  -0.4505  -0.9365
H       -3.0335  -2.1657  -0.5770
H       1.7680  0.9706  -1.4166
H       1.1754  -0.3301  -2.1472
H       -1.8565  0.8579  1.2969
H       -1.0698  -0.1357  2.2695
H       -1.8901  -2.0188  1.3838
H       -3.2789  -0.9780  1.4643
H       0.6232  -2.3684  1.0852
H       1.5139  -1.1677  1.6762
H       3.2562  -1.0385  -1.5563
H       3.1178  -0.1239  -0.0886
H       -0.8049  -2.3635  -0.9556
H       -1.1417  -1.1882  -2.0181
