27

Co      -0.0474  0.0098  -0.0317
Cl      -1.1077  1.6301  -1.2235
Cl      1.1972  1.4816  1.3999
C       2.7340  -0.7395  -0.7817
C       2.2027  -2.0211  -0.0720
C       -2.6037  -1.3497  -0.4578
C       -2.4813  -1.2228  1.0810
N       1.5270  0.0927  -1.3692
N       1.1933  -1.5631  0.8844
N       -1.1779  -1.2302  -0.9469
N       -1.5044  -0.0462  1.2999
H       2.9617  -2.6935  0.3555
H       1.6815  -2.5827  -0.8559
H       -3.1145  -0.4630  -0.8204
H       -3.0900  -2.2308  -0.8712
H       1.7712  1.0723  -1.3981
H       1.3471  -0.1784  -2.3176
H       -1.9873  0.8368  1.2641
H       -1.0712  -0.0895  2.2105
H       -2.0792  -2.1011  1.5739
H       -3.4339  -0.9917  1.5414
H       0.7075  -2.3332  1.3181
H       1.6391  -1.0322  1.6254
H       3.3398  -1.0673  -1.6148
H       3.3254  -0.0783  -0.1643
H       -0.7128  -2.1308  -0.8591
H       -1.1831  -0.9877  -1.9220
