27

Co      -0.0697  -0.0340  -0.0177
Cl      -1.0581  1.5688  -1.1830
Cl      1.1890  1.4869  1.4015
C       2.7536  -0.6834  -0.8637
C       2.1401  -1.9688  -0.1281
C       -2.5389  -1.2990  -0.4545
C       -2.4119  -1.1537  1.0570
N       1.5165  0.0599  -1.3604
N       0.9886  -1.4373  0.8631
N       -1.1110  -1.2254  -0.9486
N       -1.4253  -0.0632  1.2657
H       2.8540  -2.5232  0.4738
H       1.6722  -2.6595  -0.8180
H       -3.1019  -0.4943  -0.9031
H       -2.9757  -2.2459  -0.7456
H       1.6697  1.0596  -1.3657
H       1.2779  -0.1969  -2.3001
H       -1.8697  0.8345  1.1471
H       -1.0551  -0.0452  2.1967
H       -2.0038  -2.0635  1.4786
H       -3.3384  -0.9421  1.5649
H       0.5042  -2.2134  1.2799
H       1.4490  -0.9484  1.6151
H       3.4826  -0.8579  -1.6536
H       3.2019  -0.0445  -0.1104
H       -0.7053  -2.1449  -0.9231
H       -1.1154  -0.9268  -1.9039
