27

Co      0.0022  0.0331  0.0208
Cl      -1.0755  1.5867  -1.2068
Cl      1.1443  1.4109  1.3417
C       2.7198  -0.7224  -0.8474
C       2.1508  -1.9408  -0.1012
C       -2.5126  -1.3183  -0.4616
C       -2.4316  -1.1533  1.0730
N       1.4967  0.0322  -1.2613
N       1.0260  -1.3921  0.7453
N       -1.1341  -1.3426  -1.0594
N       -1.4983  -0.0306  1.3966
H       2.9700  -2.4606  0.3770
H       1.6519  -2.6275  -0.7662
H       -2.9359  -0.4570  -0.9638
H       -3.1722  -2.1817  -0.5981
H       1.7929  0.9811  -1.5115
H       1.3613  -0.3813  -2.1866
H       -2.0317  0.8270  1.3581
H       -1.2418  -0.1013  2.3723
H       -2.0049  -2.0134  1.5794
H       -3.4512  -1.0419  1.4283
H       0.5153  -2.1776  1.1104
H       1.5873  -1.1079  1.5489
H       3.4429  -1.0992  -1.5671
H       3.2114  -0.0184  -0.1857
H       -0.9090  -2.3297  -1.1218
H       -1.2608  -1.0709  -2.0222
