27

Co      -0.0664  -0.0041  0.0015
Cl      -1.0832  1.5918  -1.2022
Cl      1.1705  1.4452  1.3604
C       2.7657  -0.7204  -0.8567
C       2.2001  -1.9942  -0.1299
C       -2.5814  -1.2975  -0.4423
C       -2.4021  -1.1578  1.0387
N       1.5470  0.0746  -1.3114
N       1.0929  -1.4843  0.9110
N       -1.1666  -1.2463  -0.9679
N       -1.4439  -0.0508  1.2519
H       2.8573  -2.5230  0.5783
H       1.8055  -2.7253  -0.8316
H       -3.2357  -0.5123  -0.8131
H       -2.9218  -2.2733  -0.8255
H       1.6647  1.0891  -1.1919
H       1.0923  -0.0713  -2.2172
H       -1.8282  0.8709  1.0947
H       -0.9950  -0.0200  2.1511
H       -1.9960  -2.1007  1.3946
H       -3.2844  -0.9143  1.6318
H       0.5591  -2.2394  1.2940
H       1.4266  -0.8640  1.6622
H       3.3451  -0.7823  -1.8092
H       3.3524  -0.1856  -0.1174
H       -0.6421  -2.1182  -0.9155
H       -1.1141  -0.8786  -1.9006
