27

Co      0.0502  0.0199  0.0351
Cl      -1.0851  1.6186  -1.2257
Cl      1.0927  1.3598  1.2872
C       2.5240  -0.7039  -0.7894
C       2.0785  -1.8557  -0.0516
C       -2.4778  -1.2964  -0.4523
C       -2.3610  -1.1196  1.0344
N       1.4412  0.1120  -1.2912
N       1.0630  -1.5487  0.8429
N       -1.1076  -1.3529  -1.0243
N       -1.4023  -0.0329  1.3342
H       2.9428  -2.3098  0.4074
H       1.6902  -2.5831  -0.7553
H       -2.9736  -0.4554  -0.8887
H       -3.0408  -2.1853  -0.6909
H       1.7209  1.0670  -1.3995
H       1.1306  -0.1942  -2.1938
H       -1.8380  0.8695  1.2855
H       -1.0496  -0.1153  2.2615
H       -2.0018  -2.0217  1.5108
H       -3.3348  -0.9034  1.4527
H       0.4988  -2.3721  1.0140
H       1.4270  -1.2426  1.7413
H       3.0840  -1.1343  -1.6208
H       3.1998  -0.0782  -0.2177
H       -0.7662  -2.2849  -0.9924
H       -1.1483  -1.0726  -1.9863
