27

Co      -0.0502  -0.0008  -0.0439
Cl      -1.0539  1.5597  -1.1711
Cl      1.1918  1.4994  1.4042
C       2.6659  -0.7186  -0.8021
C       2.1677  -1.9871  -0.0449
C       -2.5702  -1.3135  -0.4716
C       -2.4145  -1.2049  1.0614
N       1.4527  0.1202  -1.3472
N       1.0552  -1.5487  0.8086
N       -1.1311  -1.2410  -0.9050
N       -1.4249  -0.0364  1.2408
H       2.9258  -2.5501  0.4898
H       1.7549  -2.6457  -0.8041
H       -3.0446  -0.4116  -0.8346
H       -3.0781  -2.1791  -0.8951
H       1.6901  1.1020  -1.3455
H       1.2546  -0.1171  -2.3021
H       -1.9064  0.8440  1.1870
H       -0.9929  -0.0470  2.1455
H       -1.9951  -2.0862  1.5302
H       -3.3427  -0.9696  1.5700
H       0.5196  -2.3221  1.1484
H       1.4329  -1.0825  1.6199
H       3.2233  -1.0630  -1.6649
H       3.2938  -0.0491  -0.2222
H       -0.6710  -2.1393  -0.7212
H       -1.0962  -1.0854  -1.9127
