27

Co      -0.0351  -0.0218  -0.0612
Cl      -1.0978  1.6231  -1.2039
Cl      1.2348  1.5527  1.4463
C       2.7465  -0.7290  -0.7958
C       2.2402  -2.0899  -0.0998
C       -2.6320  -1.3260  -0.4520
C       -2.4563  -1.2296  1.0752
N       1.4459  0.0805  -1.2827
N       1.1187  -1.5187  0.8446
N       -1.1970  -1.3024  -0.9557
N       -1.4882  -0.0462  1.2515
H       2.8615  -2.6827  0.6133
H       1.8542  -2.7527  -0.8752
H       -3.1719  -0.4190  -0.7298
H       -3.0690  -2.2013  -0.9858
H       1.5709  1.0954  -1.1999
H       1.0195  -0.0957  -2.1859
H       -1.8955  0.8601  1.0749
H       -1.0120  0.0198  2.1478
H       -2.0587  -2.1456  1.4838
H       -3.3459  -0.9542  1.6422
H       0.5137  -2.2114  1.2636
H       1.4254  -0.8513  1.5871
H       3.2707  -0.7489  -1.7980
H       3.3445  -0.1530  -0.0979
H       -0.6544  -2.1725  -0.8202
H       -1.1356  -1.0233  -1.9224
