27

Co      0.0000  0.0031  -0.0001
Cl      -1.0794  1.6180  -1.2185
Cl      1.1512  1.4393  1.3635
C       2.5810  -0.7127  -0.7595
C       2.0816  -1.8742  -0.0950
C       -2.4798  -1.3076  -0.4447
C       -2.4054  -1.1431  1.0488
N       1.4798  0.0427  -1.3378
N       1.0799  -1.5129  0.7957
N       -1.1045  -1.3327  -1.0028
N       -1.4471  -0.0575  1.3567
H       2.9022  -2.3971  0.3733
H       1.6695  -2.5443  -0.8352
H       -2.9792  -0.4621  -0.8765
H       -3.0249  -2.1968  -0.7163
H       1.7347  1.0032  -1.4858
H       1.2233  -0.3196  -2.2378
H       -1.8816  0.8477  1.3284
H       -1.0683  -0.1530  2.2786
H       -2.0631  -2.0458  1.5385
H       -3.3902  -0.9230  1.4349
H       0.5558  -2.3218  1.0631
H       1.4701  -1.1270  1.6375
H       3.2262  -1.0962  -1.5349
H       3.1609  -0.0693  -0.1256
H       -0.7359  -2.2606  -0.9539
H       -1.1483  -1.0754  -1.9708
