27

Co      -0.0492  -0.0352  -0.0335
Cl      -1.0985  1.6195  -1.2134
Cl      1.1858  1.4736  1.3842
C       2.6517  -0.7296  -0.8077
C       2.1702  -1.9518  -0.0966
C       -2.5559  -1.2910  -0.4232
C       -2.4041  -1.1573  1.0509
N       1.5331  0.1149  -1.3247
N       1.1747  -1.5844  0.9596
N       -1.1730  -1.2590  -1.0048
N       -1.4756  -0.0334  1.2772
H       2.9300  -2.4585  0.4801
H       1.7788  -2.6694  -0.8097
H       -3.1951  -0.4839  -0.7688
H       -2.9343  -2.2414  -0.8183
H       1.7069  1.1209  -1.1419
H       1.1340  0.0226  -2.2614
H       -1.8580  0.8872  1.1307
H       -1.0067  -0.0186  2.1682
H       -2.0119  -2.0851  1.4425
H       -3.3189  -0.9210  1.5833
H       0.6888  -2.3782  1.3212
H       1.4816  -0.9462  1.7176
H       3.1901  -0.9140  -1.7462
H       3.3123  -0.1956  -0.1341
H       -0.6580  -2.1346  -0.9741
H       -1.1622  -0.8858  -1.9363
