27

Co      -0.0463  -0.0070  -0.0218
Cl      -1.0629  1.5543  -1.1758
Cl      1.1908  1.4739  1.3901
C       2.6933  -0.7390  -0.8010
C       2.1649  -1.9409  -0.1235
C       -2.5776  -1.3020  -0.4324
C       -2.4076  -1.1594  1.0399
N       1.5228  0.0498  -1.2758
N       1.1237  -1.4392  0.8197
N       -1.1985  -1.2762  -1.0161
N       -1.4772  -0.0398  1.2707
H       2.8421  -2.4554  0.5728
H       1.8062  -2.6701  -0.8457
H       -3.2203  -0.5001  -0.7779
H       -2.9613  -2.2542  -0.8085
H       1.6832  1.0504  -1.2118
H       1.0730  -0.1372  -2.1686
H       -1.8616  0.8795  1.1140
H       -1.0326  -0.0201  2.1698
H       -2.0152  -2.0900  1.4275
H       -3.3147  -0.9211  1.5836
H       0.5776  -2.1816  1.2058
H       1.4318  -0.7985  1.5722
H       3.2297  -0.8795  -1.7540
H       3.3373  -0.2037  -0.1095
H       -0.6938  -2.1556  -0.9957
H       -1.1911  -0.8978  -1.9458
