27

Co      -0.0233  -0.0390  0.0101
Cl      -1.1016  1.6144  -1.2168
Cl      1.1674  1.4523  1.3660
C       2.7816  -0.7015  -0.9030
C       2.1655  -1.9598  -0.1052
C       -2.5668  -1.2955  -0.4409
C       -2.4380  -1.1735  1.0745
N       1.5763  0.1064  -1.3730
N       1.0292  -1.4726  0.9259
N       -1.1524  -1.2490  -0.9877
N       -1.5020  -0.0387  1.3007
H       2.9034  -2.5104  0.4583
H       1.6727  -2.6542  -0.7768
H       -3.1131  -0.4682  -0.8654
H       -3.0386  -2.2213  -0.7382
H       1.7530  1.1047  -1.3217
H       1.3234  -0.0916  -2.3257
H       -1.9644  0.8406  1.1069
H       -1.1832  0.0268  2.2554
H       -1.9906  -2.0704  1.4877
H       -3.3809  -1.0140  1.5743
H       0.5265  -2.2677  1.2766
H       1.4781  -1.0322  1.7095
H       3.4547  -0.9505  -1.7155
H       3.3104  -0.0766  -0.2008
H       -0.7841  -2.1835  -1.0516
H       -1.1792  -0.8691  -1.9168
