27

Co      -0.0013  0.0210  0.0192
Cl      -1.0647  1.5859  -1.2093
Cl      1.0939  1.3524  1.2888
C       2.5788  -0.7189  -0.7956
C       2.0893  -1.8526  -0.0654
C       -2.4270  -1.2718  -0.4400
C       -2.3820  -1.1289  1.0568
N       1.4941  0.0870  -1.3249
N       1.0539  -1.5124  0.7959
N       -1.0511  -1.2853  -0.9913
N       -1.4553  -0.0243  1.3929
H       2.9194  -2.3212  0.4329
H       1.7101  -2.5735  -0.7772
H       -2.9241  -0.4262  -0.8659
H       -2.9629  -2.1602  -0.7268
H       1.7660  1.0447  -1.4149
H       1.2249  -0.2142  -2.2429
H       -1.9018  0.8723  1.3576
H       -1.0864  -0.1150  2.3151
H       -2.0210  -2.0266  1.5438
H       -3.3817  -0.9402  1.4288
H       0.5149  -2.3341  1.0119
H       1.4159  -1.1611  1.6718
H       3.1542  -1.1619  -1.6091
H       3.2391  -0.0892  -0.2165
H       -0.6736  -2.2061  -0.9494
H       -1.0923  -1.0114  -1.9541
