27

Co      -0.0252  -0.0632  0.0111
Cl      -1.1365  1.6838  -1.2525
Cl      1.2045  1.5081  1.4111
C       2.7567  -0.7244  -0.8028
C       2.1666  -1.9696  -0.0771
C       -2.6059  -1.3488  -0.4635
C       -2.4607  -1.2096  1.0758
N       1.5476  0.0886  -1.3924
N       1.1351  -1.5050  0.8623
N       -1.1898  -1.2759  -0.9792
N       -1.4878  -0.0339  1.2854
H       2.8800  -2.6819  0.3741
H       1.6279  -2.5084  -0.8759
H       -3.0964  -0.4518  -0.8236
H       -3.1293  -2.2177  -0.8548
H       1.7471  1.0781  -1.4137
H       1.3604  -0.1892  -2.3363
H       -1.9514  0.8506  1.1618
H       -1.1151  -0.0177  2.2223
H       -2.0522  -2.0838  1.5688
H       -3.4066  -0.9805  1.5442
H       0.6222  -2.2768  1.2451
H       1.5681  -1.0210  1.6339
H       3.3452  -1.1047  -1.6305
H       3.3718  -0.0566  -0.2116
H       -0.7816  -2.1981  -0.9857
H       -1.1904  -0.9428  -1.9241
