27

Co      0.0627  0.0200  0.0198
Cl      -1.0765  1.5977  -1.2171
Cl      1.0841  1.3441  1.2810
C       2.6188  -0.6863  -0.8544
C       2.1051  -1.9168  -0.0606
C       -2.4441  -1.2819  -0.4502
C       -2.4158  -1.1406  1.0891
N       1.4276  0.1000  -1.2641
N       0.9644  -1.4456  0.7956
N       -1.0481  -1.3076  -1.0158
N       -1.4729  -0.0292  1.4079
H       2.9748  -2.3667  0.3963
H       1.6380  -2.6499  -0.7032
H       -2.8395  -0.4053  -0.9468
H       -3.1015  -2.1327  -0.6289
H       1.7292  1.0467  -1.4718
H       1.2771  -0.2716  -2.2011
H       -1.9946  0.8293  1.3226
H       -1.2434  -0.0660  2.3905
H       -2.0195  -2.0050  1.6119
H       -3.4492  -1.0085  1.4118
H       0.4131  -2.2456  1.0624
H       1.4890  -1.2378  1.6593
H       3.3161  -1.0906  -1.5853
H       3.1376  0.0171  -0.2218
H       -0.8327  -2.2917  -1.0705
H       -1.1701  -1.0410  -1.9824
