27

Co      -0.0166  -0.0152  0.0345
Cl      -1.0663  1.5761  -1.1968
Cl      1.1330  1.4054  1.3260
C       2.6718  -0.6997  -0.8814
C       2.1232  -1.8971  -0.0625
C       -2.4985  -1.3004  -0.4747
C       -2.3560  -1.1112  1.0508
N       1.4851  0.1115  -1.2767
N       0.9933  -1.4408  0.8223
N       -1.1283  -1.3247  -1.0789
N       -1.4133  0.0060  1.3327
H       2.9833  -2.3855  0.3781
H       1.6233  -2.6123  -0.7037
H       -2.9468  -0.4628  -0.9889
H       -3.1463  -2.1840  -0.5710
H       1.7744  1.0711  -1.3858
H       1.3755  -0.1865  -2.2454
H       -1.9368  0.8686  1.2852
H       -1.1468  -0.0442  2.2999
H       -1.8998  -1.9660  1.5404
H       -3.3500  -0.9979  1.4616
H       0.5221  -2.2669  1.1472
H       1.5346  -1.1710  1.6472
H       3.3350  -1.1588  -1.6239
H       3.2410  -0.0017  -0.2810
H       -0.9105  -2.3116  -1.1636
H       -1.2397  -1.0189  -2.0313
