27

Co      0.0757  0.0495  0.0143
Cl      -1.0520  1.5483  -1.1899
Cl      1.0931  1.3437  1.2951
C       2.5315  -0.6847  -0.7779
C       2.0448  -1.8586  -0.0591
C       -2.4826  -1.3291  -0.4581
C       -2.4094  -1.1184  1.0589
N       1.4085  0.0835  -1.2674
N       1.0507  -1.4315  0.7971
N       -1.1214  -1.3123  -1.0714
N       -1.4335  -0.0391  1.3723
H       2.9571  -2.3687  0.2769
H       1.5347  -2.5242  -0.7406
H       -2.9432  -0.4983  -0.9682
H       -3.1161  -2.2135  -0.5655
H       1.7553  1.0123  -1.5683
H       1.2688  -0.3738  -2.1779
H       -1.9398  0.8376  1.3766
H       -1.1657  -0.1568  2.3336
H       -2.0520  -1.9831  1.6148
H       -3.4389  -0.9363  1.3753
H       0.5292  -2.2315  1.1015
H       1.5967  -1.1901  1.6298
H       3.2333  -1.1719  -1.4757
H       3.0726  0.0223  -0.1696
H       -0.8974  -2.2911  -1.1603
H       -1.2793  -1.0220  -2.0283
