27

Co      -0.0517  -0.0434  -0.0252
Cl      -1.0960  1.6170  -1.2110
Cl      1.1834  1.4711  1.3793
C       2.6718  -0.7287  -0.7735
C       2.1852  -1.9902  -0.0612
C       -2.5874  -1.3179  -0.4525
C       -2.4059  -1.1832  1.0545
N       1.4775  0.1312  -1.3122
N       1.1783  -1.5476  0.8944
N       -1.1714  -1.2155  -0.9558
N       -1.4278  -0.0195  1.2274
H       2.8675  -2.6087  0.5245
H       1.7698  -2.6211  -0.8524
H       -3.1935  -0.4617  -0.7426
H       -2.9634  -2.2376  -0.9537
H       1.6373  1.1397  -1.1545
H       1.1012  0.0088  -2.2465
H       -1.8187  0.9002  1.0982
H       -0.9294  0.0055  2.1075
H       -2.0253  -2.0949  1.4923
H       -3.2986  -0.8805  1.6112
H       0.6421  -2.2897  1.2970
H       1.4758  -0.8738  1.6411
H       3.1166  -0.9498  -1.7728
H       3.3994  -0.1628  -0.1822
H       -0.6024  -2.0703  -0.8672
H       -1.1118  -0.8760  -1.9003
