27

Co      -0.0728  -0.0434  0.0027
Cl      -1.0874  1.6002  -1.2065
Cl      1.1747  1.4557  1.3689
C       2.8115  -0.7104  -0.8610
C       2.2020  -2.0178  -0.0758
C       -2.5728  -1.3165  -0.4722
C       -2.4260  -1.1876  1.0781
N       1.5207  0.1129  -1.3430
N       1.0583  -1.4456  0.8549
N       -1.1313  -1.1898  -0.9465
N       -1.4464  -0.0131  1.2685
H       2.8664  -2.6763  0.4988
H       1.6892  -2.6274  -0.8234
H       -3.0958  -0.4480  -0.8471
H       -3.0344  -2.2175  -0.8696
H       1.6853  1.1157  -1.2912
H       1.3121  -0.0937  -2.3069
H       -1.9192  0.8693  1.1449
H       -1.0589  0.0254  2.1967
H       -1.9903  -2.0665  1.5415
H       -3.3528  -0.9677  1.5904
H       0.5464  -2.1911  1.3054
H       1.5095  -0.9148  1.5937
H       3.3930  -0.9726  -1.7401
H       3.3995  -0.0574  -0.2312
H       -0.6855  -2.0957  -0.9271
H       -1.1131  -0.8651  -1.8946
