27

Co      -0.0227  -0.0329  0.0014
Cl      -1.0782  1.6000  -1.2103
Cl      1.1931  1.5061  1.4104
C       2.7806  -0.6842  -0.8447
C       2.1481  -1.9994  -0.0848
C       -2.5950  -1.3734  -0.4738
C       -2.4796  -1.1890  1.0759
N       1.4941  0.0837  -1.4076
N       0.9793  -1.4387  0.8260
N       -1.1451  -1.2233  -0.9352
N       -1.4169  -0.0803  1.2715
H       2.7950  -2.6706  0.5044
H       1.6494  -2.5926  -0.8571
H       -3.1369  -0.5334  -0.8840
H       -3.0321  -2.2975  -0.8480
H       1.6442  1.0787  -1.4779
H       1.2613  -0.2387  -2.3280
H       -1.8477  0.8268  1.1870
H       -1.0323  -0.0948  2.1991
H       -2.1478  -2.0855  1.5890
H       -3.4058  -0.8678  1.5438
H       0.3924  -2.1759  1.1741
H       1.4029  -1.0023  1.6258
H       3.4294  -0.9403  -1.6696
H       3.2982  -0.0017  -0.1856
H       -0.7037  -2.1288  -0.9423
H       -1.1354  -0.8876  -1.8796
