27

Co      0.0697  0.0361  0.0152
Cl      -1.0959  1.6406  -1.2477
Cl      1.1091  1.3849  1.3088
C       2.5859  -0.6971  -0.8251
C       2.1259  -1.9423  -0.0688
C       -2.4687  -1.3333  -0.4428
C       -2.4287  -1.1171  1.0730
N       1.4260  0.1038  -1.2775
N       1.0342  -1.5487  0.8725
N       -1.1102  -1.4033  -1.1046
N       -1.4572  -0.0454  1.4490
H       2.9573  -2.3838  0.4535
H       1.7232  -2.6840  -0.7446
H       -2.9668  -0.4996  -0.9015
H       -3.0492  -2.2223  -0.6520
H       1.6778  1.0627  -1.4154
H       1.0697  -0.2198  -2.1643
H       -1.8727  0.8688  1.4275
H       -1.1036  -0.1773  2.3813
H       -2.1352  -2.0212  1.5929
H       -3.4380  -0.8762  1.3995
H       0.4197  -2.3399  1.0477
H       1.4162  -1.2511  1.7649
H       3.2036  -0.9733  -1.6641
H       3.1703  -0.0710  -0.1741
H       -0.7889  -2.3445  -1.1862
H       -1.2153  -1.0346  -2.0354
