27

Co      -0.0633  -0.0015  -0.0122
Cl      -1.0539  1.5603  -1.1788
Cl      1.1848  1.4763  1.3931
C       2.7526  -0.6822  -0.8284
C       2.1629  -2.0213  -0.0837
C       -2.5810  -1.3427  -0.4918
C       -2.4059  -1.1709  1.0535
N       1.4576  0.0976  -1.3597
N       1.0274  -1.4669  0.8587
N       -1.1439  -1.2504  -0.9655
N       -1.3823  -0.0339  1.2534
H       2.8397  -2.6850  0.4690
H       1.6535  -2.6166  -0.8477
H       -3.1022  -0.4849  -0.8929
H       -3.0611  -2.2456  -0.8431
H       1.6232  1.0910  -1.4147
H       1.2238  -0.2041  -2.2867
H       -1.8422  0.8647  1.2203
H       -0.9541  -0.0707  2.1604
H       -2.0045  -2.0614  1.5203
H       -3.3198  -0.9118  1.5767
H       0.4885  -2.2061  1.2758
H       1.4774  -0.9752  1.6161
H       3.3935  -0.8971  -1.6746
H       3.2700  -0.0106  -0.1581
H       -0.6992  -2.1543  -0.8828
H       -1.1194  -0.9902  -1.9347
