27

Co      0.0329  0.0010  0.0419
Cl      -1.1026  1.6303  -1.2300
Cl      1.1498  1.4338  1.3534
C       2.6913  -0.7025  -0.8465
C       2.1083  -1.8939  -0.1000
C       -2.5403  -1.3218  -0.4546
C       -2.4139  -1.1478  1.0537
N       1.5433  0.0756  -1.3727
N       1.0374  -1.4812  0.8674
N       -1.1798  -1.4116  -1.0951
N       -1.4937  -0.0250  1.3836
H       2.8744  -2.4547  0.4070
H       1.6365  -2.5560  -0.8139
H       -3.0286  -0.4658  -0.8846
H       -3.1376  -2.1972  -0.6754
H       1.7607  1.0462  -1.5030
H       1.2330  -0.2706  -2.2621
H       -1.9420  0.8659  1.2768
H       -1.1755  -0.0701  2.3335
H       -2.0108  -2.0419  1.5054
H       -3.3912  -0.9894  1.4798
H       0.4595  -2.2825  1.0761
H       1.4414  -1.1621  1.7343
H       3.3410  -1.0520  -1.6368
H       3.2646  -0.0632  -0.1954
H       -0.8773  -2.3668  -1.1791
H       -1.2397  -1.0286  -2.0213
