27

Co      0.0027  0.0121  -0.0363
Cl      -1.0992  1.6044  -1.2048
Cl      1.2076  1.5069  1.4217
C       2.7467  -0.7051  -0.8310
C       2.1679  -2.0042  -0.1421
C       -2.6429  -1.3290  -0.4244
C       -2.4911  -1.2127  1.0625
N       1.5595  0.0670  -1.4029
N       1.1106  -1.5306  0.9674
N       -1.2226  -1.2845  -0.9636
N       -1.5319  -0.0959  1.2703
H       2.8472  -2.5823  0.4884
H       1.7282  -2.6778  -0.8699
H       -3.2746  -0.5133  -0.7742
H       -3.0038  -2.2800  -0.8477
H       1.6894  1.0744  -1.3657
H       1.1145  -0.1617  -2.2831
H       -1.9223  0.8183  1.0732
H       -1.1048  -0.0439  2.1825
H       -2.1053  -2.1569  1.4291
H       -3.3883  -0.9640  1.6256
H       0.5408  -2.2819  1.3072
H       1.4482  -0.9501  1.7330
H       3.4234  -0.7522  -1.7092
H       3.2428  -0.1462  -0.0394
H       -0.7165  -2.1670  -0.9290
H       -1.1937  -0.9222  -1.8995
