27

Co      0.0071  0.0256  0.0420
Cl      -1.0907  1.6210  -1.2420
Cl      1.1154  1.3652  1.2976
C       2.6575  -0.7170  -0.8168
C       2.1544  -1.9462  -0.0949
C       -2.4990  -1.3567  -0.4557
C       -2.4047  -1.0858  1.0496
N       1.4562  0.0636  -1.2091
N       1.1043  -1.4395  0.8378
N       -1.1522  -1.3393  -1.1361
N       -1.4112  -0.0329  1.3989
H       2.9318  -2.4574  0.4435
H       1.6986  -2.6501  -0.7762
H       -3.0890  -0.5898  -0.9367
H       -3.0043  -2.3087  -0.6018
H       1.6891  1.0299  -1.3347
H       1.1075  -0.2515  -2.1003
H       -1.8172  0.8939  1.4094
H       -1.0389  -0.1823  2.3235
H       -2.1037  -1.9897  1.5693
H       -3.3890  -0.8216  1.4172
H       0.5600  -2.2039  1.1844
H       1.5548  -1.0123  1.6277
H       3.2539  -0.9644  -1.6865
H       3.2585  -0.1126  -0.1570
H       -0.8028  -2.2711  -1.2863
H       -1.2674  -0.8929  -2.0378
