27

Co      -0.0502  0.0117  -0.0477
Cl      -1.0850  1.5937  -1.1910
Cl      1.2220  1.5313  1.4316
C       2.7096  -0.7535  -0.8225
C       2.2037  -1.9870  -0.1063
C       -2.6235  -1.3113  -0.4366
C       -2.4607  -1.2209  1.0531
N       1.5372  0.0509  -1.3128
N       1.1148  -1.5410  0.8250
N       -1.1907  -1.2460  -0.8905
N       -1.4959  -0.0939  1.2161
H       3.0086  -2.4641  0.4498
H       1.8075  -2.7214  -0.7945
H       -3.1606  -0.4711  -0.8488
H       -3.0787  -2.2323  -0.7838
H       1.7916  1.0330  -1.3088
H       1.3160  -0.1683  -2.2631
H       -1.9779  0.7809  1.0997
H       -1.1124  -0.0643  2.1445
H       -2.0172  -2.1249  1.4574
H       -3.3815  -1.0306  1.5913
H       0.6470  -2.3410  1.2164
H       1.5378  -1.0453  1.5952
H       3.3661  -1.0115  -1.6382
H       3.2573  -0.1262  -0.1352
H       -0.7585  -2.1592  -0.7343
H       -1.1839  -1.0840  -1.8950
