27

Co      0.0502  -0.0025  0.0473
Cl      -1.1229  1.6642  -1.2600
Cl      1.1226  1.3792  1.3168
C       2.6859  -0.6992  -0.8131
C       2.1118  -1.9163  -0.1157
C       -2.5015  -1.3286  -0.4442
C       -2.4326  -1.1288  1.0729
N       1.5105  0.0521  -1.3072
N       1.0975  -1.4301  0.8698
N       -1.1539  -1.3875  -1.1364
N       -1.5104  -0.0208  1.4430
H       2.8656  -2.5168  0.3662
H       1.5928  -2.5414  -0.8351
H       -3.0116  -0.4874  -0.8777
H       -3.0852  -2.2145  -0.6519
H       1.7195  1.0203  -1.4819
H       1.1799  -0.3280  -2.1826
H       -1.9411  0.8817  1.3409
H       -1.2013  -0.0877  2.3983
H       -2.0788  -2.0231  1.5668
H       -3.4389  -0.9467  1.4267
H       0.5300  -2.1970  1.1775
H       1.5534  -1.0452  1.6748
H       3.3492  -0.9792  -1.6162
H       3.2311  -0.0749  -0.1276
H       -0.8576  -2.3434  -1.3118
H       -1.2620  -0.9225  -2.0324
