27

Co      0.0252  0.0671  -0.0116
Cl      -1.0539  1.5606  -1.1820
Cl      1.1202  1.3774  1.3237
C       2.5372  -0.7165  -0.7713
C       2.0763  -1.8563  -0.1367
C       -2.4575  -1.2493  -0.4230
C       -2.3705  -1.1280  1.0330
N       1.4705  0.0073  -1.2488
N       1.0847  -1.4785  0.7968
N       -1.1074  -1.3839  -1.0354
N       -1.4941  -0.0539  1.3751
H       2.9589  -2.2358  0.3756
H       1.7151  -2.6449  -0.7865
H       -2.9573  -0.4230  -0.8843
H       -3.0352  -2.1423  -0.6063
H       1.7571  0.9563  -1.4503
H       1.1315  -0.3691  -2.1210
H       -1.9533  0.8342  1.2983
H       -1.1641  -0.1197  2.3127
H       -1.9598  -2.0471  1.4316
H       -3.3638  -1.0217  1.4483
H       0.5758  -2.2938  1.0768
H       1.5039  -1.1038  1.6245
H       3.2559  -0.9829  -1.5294
H       3.0474  -0.1205  -0.0348
H       -0.8006  -2.3332  -0.9611
H       -1.1852  -1.1685  -2.0171
