27

Co      0.0513  0.0288  0.0125
Cl      -1.0724  1.5833  -1.1965
Cl      1.1171  1.3870  1.3292
C       2.5784  -0.6939  -0.7802
C       2.0376  -1.8293  -0.0851
C       -2.4766  -1.2699  -0.4421
C       -2.3988  -1.1671  1.0585
N       1.5184  0.0782  -1.4158
N       1.0522  -1.5123  0.8407
N       -1.1105  -1.3761  -1.0257
N       -1.5233  -0.0180  1.4008
H       2.8595  -2.3833  0.3409
H       1.5925  -2.4719  -0.8334
H       -2.9101  -0.3638  -0.8317
H       -3.1005  -2.1002  -0.7443
H       1.7823  1.0314  -1.6017
H       1.2449  -0.3230  -2.2991
H       -1.9968  0.8586  1.2984
H       -1.1949  -0.0596  2.3415
H       -1.9802  -2.0579  1.5082
H       -3.4016  -1.0484  1.4546
H       0.4780  -2.3302  1.0115
H       1.4244  -1.2124  1.7322
H       3.2351  -1.1463  -1.5244
H       3.1662  -0.0407  -0.1620
H       -0.7902  -2.3221  -0.9877
H       -1.1502  -1.1090  -1.9919
