27

Co      0.0658  0.0171  0.0087
Cl      -1.0562  1.5603  -1.1906
Cl      1.1043  1.3752  1.3106
C       2.5561  -0.7001  -0.8108
C       2.0601  -1.8466  -0.0493
C       -2.4573  -1.2912  -0.4475
C       -2.4116  -1.1422  1.0758
N       1.4373  0.0897  -1.2844
N       0.9904  -1.4369  0.7432
N       -1.0848  -1.3156  -1.0300
N       -1.4771  -0.0279  1.3878
H       2.9596  -2.3016  0.3616
H       1.6143  -2.5632  -0.7196
H       -2.8604  -0.4149  -0.9310
H       -3.1264  -2.1378  -0.6167
H       1.7791  1.0249  -1.5207
H       1.3160  -0.3107  -2.2180
H       -1.9988  0.8306  1.3226
H       -1.2374  -0.0831  2.3632
H       -2.0192  -1.9992  1.6156
H       -3.4503  -1.0056  1.3878
H       0.4486  -2.2509  0.9839
H       1.4846  -1.2304  1.6226
H       3.2202  -1.2315  -1.5204
H       3.1371  0.0112  -0.2382
H       -0.8699  -2.3000  -1.0827
H       -1.2204  -1.0601  -2.0008
