27

Co      0.0725  0.0579  0.0283
Cl      -1.0806  1.6052  -1.2358
Cl      1.0868  1.3375  1.2822
C       2.5514  -0.7125  -0.7583
C       2.0816  -1.8787  -0.0769
C       -2.4747  -1.3524  -0.4358
C       -2.4506  -1.1168  1.0600
N       1.4424  0.0565  -1.2726
N       1.0964  -1.4719  0.7975
N       -1.1136  -1.3084  -1.0533
N       -1.4459  -0.0765  1.4152
H       2.9081  -2.3759  0.3979
H       1.6654  -2.5695  -0.7945
H       -3.0390  -0.5638  -0.8982
H       -2.9699  -2.2868  -0.6524
H       1.7254  1.0007  -1.4987
H       1.1063  -0.3490  -2.1384
H       -1.8501  0.8487  1.4274
H       -1.0858  -0.2382  2.3407
H       -2.2037  -2.0277  1.6154
H       -3.4602  -0.8196  1.3676
H       0.5035  -2.2510  1.0308
H       1.4950  -1.1299  1.6564
H       3.1584  -1.0807  -1.5733
H       3.1692  -0.0876  -0.1384
H       -0.7476  -2.2304  -1.1376
H       -1.2214  -0.9341  -1.9807
