27

Co      -0.0568  -0.0233  -0.0212
Cl      -1.0982  1.6256  -1.2249
Cl      1.1981  1.5018  1.3975
C       2.7973  -0.7521  -0.8849
C       2.2397  -2.0109  -0.1229
C       -2.5383  -1.2965  -0.4164
C       -2.4662  -1.1792  1.0855
N       1.5751  0.0640  -1.3146
N       1.0500  -1.5012  0.8404
N       -1.1412  -1.2971  -1.0040
N       -1.5481  -0.0492  1.3794
H       2.8888  -2.4663  0.6745
H       1.9210  -2.7987  -0.8086
H       -3.1375  -0.4703  -0.7713
H       -2.9405  -2.2288  -0.8349
H       1.7032  1.0772  -1.1718
H       1.1192  -0.0512  -2.2308
H       -1.9277  0.8661  1.2028
H       -1.1178  -0.0284  2.2919
H       -2.0995  -2.1104  1.4891
H       -3.4048  -0.9536  1.5594
H       0.4630  -2.2584  1.1378
H       1.3210  -0.9273  1.6498
H       3.3447  -0.8311  -1.8511
H       3.4134  -0.2127  -0.1713
H       -0.6401  -2.1809  -1.0143
H       -1.1367  -0.8931  -1.9252
