27

Co      -0.0028  0.0003  -0.0140
Cl      -1.1033  1.6188  -1.2254
Cl      1.1746  1.4664  1.3735
C       2.7374  -0.7204  -0.8541
C       2.1980  -2.0079  -0.1165
C       -2.6187  -1.3368  -0.4203
C       -2.4880  -1.1862  1.0608
N       1.5353  0.0856  -1.3297
N       1.0868  -1.5209  0.9285
N       -1.1828  -1.2094  -0.9214
N       -1.4717  -0.1140  1.2447
H       2.8817  -2.5046  0.5844
H       1.8204  -2.7578  -0.8097
H       -3.3042  -0.5738  -0.8005
H       -2.8996  -2.3401  -0.8342
H       1.6712  1.0954  -1.2220
H       1.0729  -0.0646  -2.2308
H       -1.8333  0.8163  1.0619
H       -1.0432  -0.0739  2.1541
H       -2.1597  -2.1393  1.4608
H       -3.3762  -0.8617  1.6116
H       0.5111  -2.2740  1.2547
H       1.4025  -0.9438  1.7117
H       3.3307  -0.7815  -1.7959
H       3.3138  -0.1810  -0.1115
H       -0.6430  -2.0745  -0.9084
H       -1.1514  -0.8186  -1.8481
