27

Co      0.0018  0.0302  0.0047
Cl      -1.0755  1.5826  -1.2027
Cl      1.1443  1.4154  1.3458
C       2.6349  -0.7410  -0.7861
C       2.1135  -1.8735  -0.0897
C       -2.5188  -1.3058  -0.4350
C       -2.4365  -1.1698  1.0573
N       1.5404  0.0497  -1.3377
N       1.1067  -1.4844  0.7826
N       -1.1421  -1.2945  -0.9939
N       -1.5114  -0.0498  1.3577
H       2.9224  -2.3911  0.4030
H       1.7027  -2.5586  -0.8155
H       -3.0362  -0.4614  -0.8482
H       -3.0420  -2.2009  -0.7268
H       1.8195  1.0076  -1.4625
H       1.2814  -0.2838  -2.2447
H       -1.9718  0.8378  1.2936
H       -1.1524  -0.1125  2.2886
H       -2.0534  -2.0654  1.5302
H       -3.4226  -0.9877  1.4612
H       0.5774  -2.2896  1.0569
H       1.4956  -1.0887  1.6193
H       3.2443  -1.1614  -1.5804
H       3.2632  -0.1089  -0.1773
H       -0.7619  -2.2199  -0.9686
H       -1.1924  -1.0147  -1.9554
