27

Co      0.0556  0.0530  0.0419
Cl      -1.0520  1.5560  -1.1905
Cl      1.1001  1.3626  1.2980
C       2.5657  -0.7109  -0.7901
C       2.0683  -1.8400  -0.0736
C       -2.4847  -1.3074  -0.4590
C       -2.3695  -1.1193  1.0332
N       1.4529  0.0641  -1.2816
N       1.0218  -1.4403  0.7447
N       -1.1380  -1.4069  -1.0847
N       -1.4383  -0.0197  1.3841
H       2.8671  -2.3141  0.4657
H       1.6930  -2.5616  -0.7888
H       -2.9668  -0.4569  -0.8904
H       -3.0923  -2.1784  -0.6663
H       1.7267  1.0111  -1.5037
H       1.0991  -0.3368  -2.1427
H       -1.8808  0.8789  1.3449
H       -1.1024  -0.1242  2.3171
H       -2.0051  -2.0168  1.5130
H       -3.3575  -0.9305  1.4284
H       0.3974  -2.2271  0.9060
H       1.3796  -1.1538  1.6523
H       3.1335  -1.1243  -1.6187
H       3.2248  -0.0789  -0.2054
H       -0.8241  -2.3500  -1.0975
H       -1.2042  -1.0943  -2.0351
