27

Co      -0.0552  -0.0154  -0.0385
Cl      -1.1091  1.6665  -1.2334
Cl      1.2086  1.5240  1.4197
C       2.6635  -0.7345  -0.7991
C       2.1937  -2.0001  -0.1085
C       -2.5627  -1.3037  -0.4432
C       -2.4281  -1.1926  1.0493
N       1.4814  0.0455  -1.2927
N       1.1083  -1.5898  0.8443
N       -1.1250  -1.2733  -0.8822
N       -1.4332  -0.1000  1.2322
H       3.0181  -2.4716  0.4201
H       1.8008  -2.7274  -0.8063
H       -3.0740  -0.4593  -0.8756
H       -3.0366  -2.2173  -0.7827
H       1.7147  1.0301  -1.2947
H       1.2595  -0.1822  -2.2422
H       -1.8892  0.7923  1.1547
H       -1.0314  -0.1079  2.1531
H       -2.0301  -2.1054  1.4735
H       -3.3538  -0.9659  1.5572
H       0.6535  -2.3997  1.2289
H       1.5341  -1.1055  1.6212
H       3.3371  -0.9556  -1.6114
H       3.1814  -0.1037  -0.0960
H       -0.6983  -2.1859  -0.6899
H       -1.1039  -1.1400  -1.8948
