27

Co      -0.0627  -0.0204  -0.0194
Cl      -1.1003  1.6262  -1.2140
Cl      1.2303  1.5346  1.4401
C       2.7879  -0.7084  -0.8012
C       2.1976  -2.0444  -0.1144
C       -2.6363  -1.3601  -0.4713
C       -2.4371  -1.1931  1.0538
N       1.5213  0.0810  -1.3903
N       1.1421  -1.5216  0.9290
N       -1.2282  -1.3238  -1.0285
N       -1.4566  -0.0308  1.2788
H       2.8021  -2.7638  0.4944
H       1.7069  -2.6036  -0.9274
H       -3.2254  -0.4966  -0.7828
H       -3.0619  -2.2667  -0.9210
H       1.6227  1.0958  -1.3441
H       1.1169  -0.1562  -2.2807
H       -1.8472  0.8936  1.1851
H       -0.9537  -0.0485  2.1619
H       -2.0516  -2.1100  1.4736
H       -3.3267  -0.9107  1.6167
H       0.5730  -2.2418  1.3358
H       1.4799  -0.8755  1.6642
H       3.3632  -0.8014  -1.7420
H       3.3612  -0.1181  -0.0992
H       -0.6930  -2.1968  -0.9799
H       -1.1737  -0.9524  -1.9599
