27

Co      -0.0053  -0.0184  -0.0082
Cl      -1.1096  1.6643  -1.2444
Cl      1.1910  1.5092  1.3989
C       2.7170  -0.7115  -0.8804
C       2.2035  -2.0201  -0.1000
C       -2.5501  -1.3302  -0.4483
C       -2.4407  -1.1579  1.0692
N       1.4710  0.0801  -1.2822
N       1.0004  -1.5405  0.8647
N       -1.1436  -1.3646  -1.0174
N       -1.4485  -0.0728  1.3326
H       2.9744  -2.4608  0.5296
H       1.8091  -2.7903  -0.7548
H       -3.0574  -0.4964  -0.9058
H       -3.0791  -2.2388  -0.7053
H       1.6646  1.0694  -1.2948
H       1.1612  -0.1455  -2.2104
H       -1.8794  0.8285  1.2330
H       -1.0936  -0.0993  2.2730
H       -2.0785  -2.0662  1.5226
H       -3.3911  -0.9277  1.5170
H       0.4413  -2.3266  1.1447
H       1.4080  -1.1552  1.7011
H       3.3757  -0.8673  -1.7301
H       3.2311  -0.0840  -0.1654
H       -0.7891  -2.3019  -1.0185
H       -1.1856  -1.0612  -1.9725
