27

Co      -0.0486  -0.0341  -0.0456
Cl      -1.0668  1.5856  -1.1875
Cl      1.1976  1.5023  1.4119
C       2.6184  -0.6971  -0.7989
C       2.1279  -1.9503  -0.0954
C       -2.5535  -1.3095  -0.4484
C       -2.3963  -1.1493  1.0425
N       1.4552  0.0872  -1.3070
N       1.0860  -1.5303  0.8891
N       -1.1421  -1.2330  -0.9534
N       -1.3930  -0.0696  1.2155
H       2.9504  -2.4556  0.3951
H       1.6848  -2.6533  -0.7880
H       -3.1271  -0.5081  -0.8894
H       -2.9954  -2.2569  -0.7299
H       1.6761  1.0745  -1.2834
H       1.2393  -0.1307  -2.2624
H       -1.8327  0.8337  1.1366
H       -0.9891  -0.0787  2.1302
H       -2.0070  -2.0556  1.4840
H       -3.3205  -0.9049  1.5494
H       0.6453  -2.3303  1.3124
H       1.5333  -1.0118  1.6352
H       3.2924  -0.9440  -1.6047
H       3.1428  -0.0682  -0.1022
H       -0.7266  -2.1467  -0.8814
H       -1.1640  -0.9876  -1.9277
