27

Co      0.0672  0.0297  0.0167
Cl      -1.0988  1.6392  -1.2292
Cl      1.1030  1.3642  1.3009
C       2.5863  -0.6822  -0.7904
C       2.1079  -1.9442  -0.0983
C       -2.4866  -1.2744  -0.4542
C       -2.3731  -1.1470  1.0542
N       1.3996  0.0719  -1.2491
N       1.0559  -1.4939  0.8537
N       -1.1010  -1.4050  -1.0372
N       -1.4530  -0.0261  1.3622
H       2.9112  -2.4428  0.4095
H       1.6705  -2.6434  -0.7990
H       -2.9185  -0.3783  -0.8661
H       -3.1101  -2.1155  -0.7266
H       1.6282  1.0360  -1.4307
H       1.0456  -0.2960  -2.1220
H       -1.9127  0.8602  1.2401
H       -1.1338  -0.0439  2.3094
H       -1.9670  -2.0500  1.4873
H       -3.3478  -0.9913  1.4910
H       0.4662  -2.2602  1.1278
H       1.4844  -1.1391  1.6894
H       3.2434  -0.8959  -1.6185
H       3.1147  -0.0569  -0.0927
H       -0.7950  -2.3541  -0.9852
H       -1.1400  -1.1472  -2.0067
