27

Co      0.0057  0.0413  0.0108
Cl      -1.1069  1.6434  -1.2403
Cl      1.1351  1.4000  1.3274
C       2.5775  -0.7461  -0.8094
C       2.1312  -1.8703  -0.1139
C       -2.4909  -1.2883  -0.4169
C       -2.3984  -1.1213  1.0360
N       1.5478  0.0502  -1.2785
N       1.1579  -1.5876  0.8951
N       -1.1526  -1.3790  -1.0667
N       -1.4999  -0.0590  1.3835
H       3.0633  -2.2467  0.3291
H       1.7438  -2.6583  -0.7471
H       -3.0420  -0.5022  -0.9034
H       -3.0326  -2.2189  -0.5610
H       1.8538  1.0048  -1.3540
H       1.2430  -0.2165  -2.1926
H       -1.9429  0.8392  1.3447
H       -1.1490  -0.1655  2.3164
H       -2.0102  -2.0369  1.4591
H       -3.3928  -0.9855  1.4377
H       0.7027  -2.4543  1.1422
H       1.5715  -1.2193  1.7339
H       3.2484  -1.0936  -1.5823
H       3.1652  -0.1616  -0.1254
H       -0.8327  -2.3255  -1.0713
H       -1.2473  -1.0869  -2.0216
