27

Co      0.0162  0.0035  -0.0486
Cl      -1.0681  1.5739  -1.1814
Cl      1.1844  1.4935  1.4013
C       2.6263  -0.7146  -0.8320
C       2.1409  -1.9461  -0.0792
C       -2.5472  -1.2877  -0.4330
C       -2.4362  -1.1908  1.0724
N       1.4744  0.0991  -1.3215
N       1.0310  -1.5394  0.8408
N       -1.1474  -1.3220  -0.9802
N       -1.5096  -0.0524  1.3117
H       2.9628  -2.3819  0.4784
H       1.7627  -2.7039  -0.7551
H       -3.0255  -0.4099  -0.8335
H       -3.0969  -2.1587  -0.7588
H       1.7263  1.0741  -1.3469
H       1.2076  -0.1417  -2.2554
H       -1.9807  0.8226  1.1684
H       -1.1608  -0.0287  2.2503
H       -2.0148  -2.0852  1.5055
H       -3.3999  -1.0256  1.5296
H       0.4827  -2.3357  1.1100
H       1.4112  -1.1416  1.6822
H       3.2656  -0.9973  -1.6500
H       3.1901  -0.0804  -0.1675
H       -0.7842  -2.2562  -0.9137
H       -1.1890  -1.0893  -1.9616
