27

Co      0.0463  -0.0082  0.0252
Cl      -1.0918  1.6296  -1.2324
Cl      1.0994  1.3728  1.3006
C       2.6000  -0.6762  -0.8457
C       2.0841  -1.8896  -0.0653
C       -2.4464  -1.2795  -0.4451
C       -2.3844  -1.1235  1.0698
N       1.4742  0.1336  -1.3579
N       1.0012  -1.5444  0.9118
N       -1.0743  -1.3609  -1.0593
N       -1.4605  -0.0120  1.4125
H       2.9047  -2.3765  0.4225
H       1.6480  -2.6000  -0.7548
H       -2.9165  -0.4161  -0.8754
H       -3.0336  -2.1482  -0.7023
H       1.6989  1.1040  -1.4201
H       1.1703  -0.1492  -2.2728
H       -1.8989  0.8838  1.3117
H       -1.1302  -0.0602  2.3537
H       -2.0116  -2.0198  1.5418
H       -3.3814  -0.9502  1.4515
H       0.4239  -2.3623  1.0809
H       1.3804  -1.2469  1.8055
H       3.2261  -1.0297  -1.6530
H       3.1928  -0.0414  -0.2138
H       -0.7580  -2.3053  -1.1101
H       -1.1334  -1.0046  -1.9952
