27

Co      0.0336  0.0330  0.0566
Cl      -1.0988  1.6433  -1.2333
Cl      1.1030  1.3646  1.2968
C       2.6157  -0.6803  -0.8623
C       2.0927  -1.8861  -0.1259
C       -2.4889  -1.2699  -0.4628
C       -2.3363  -1.1069  1.0187
N       1.4718  0.0413  -1.2575
N       0.9983  -1.4860  0.8713
N       -1.1079  -1.4132  -1.0318
N       -1.4009  -0.0569  1.3138
H       3.0236  -2.2960  0.2805
H       1.6076  -2.6532  -0.7230
H       -2.9158  -0.4515  -1.0367
H       -3.1575  -2.1624  -0.4840
H       1.7627  0.9896  -1.5026
H       1.2858  -0.3608  -2.1709
H       -1.9201  0.8076  1.2425
H       -1.1832  -0.1037  2.2989
H       -1.8692  -2.0020  1.4228
H       -3.3172  -1.0366  1.4715
H       0.5385  -2.3430  1.1454
H       1.5773  -1.3026  1.7170
H       3.4376  -1.0109  -1.5229
H       3.0308  -0.0054  -0.1182
H       -0.9494  -2.4200  -1.0087
H       -1.1929  -1.2178  -2.0197
