27

Co      0.0000  -0.0083  0.0000
Cl      -1.0800  1.5925  -1.1961
Cl      1.1433  1.4143  1.3438
C       2.6492  -0.6967  -0.8210
C       2.1153  -1.9183  -0.0976
C       -2.5136  -1.2659  -0.4500
C       -2.3729  -1.1551  1.0549
N       1.4873  0.0889  -1.3110
N       1.0669  -1.4783  0.8704
N       -1.1297  -1.3288  -1.0263
N       -1.4771  -0.0064  1.3219
H       2.9041  -2.4491  0.4063
H       1.6544  -2.6037  -0.7967
H       -2.9920  -0.3900  -0.8506
H       -3.0855  -2.1334  -0.7354
H       1.7082  1.0667  -1.3680
H       1.2105  -0.1908  -2.2317
H       -1.9516  0.8700  1.1754
H       -1.1417  0.0161  2.2641
H       -1.9134  -2.0463  1.4677
H       -3.3346  -1.0316  1.5329
H       0.5516  -2.2669  1.2075
H       1.5004  -1.0483  1.6657
H       3.2958  -0.9826  -1.6349
H       3.2077  -0.0710  -0.1475
H       -0.7922  -2.2709  -1.0032
H       -1.1630  -1.0373  -1.9848
