27

Co      0.0047  0.0287  0.0115
Cl      -1.0672  1.5849  -1.2152
Cl      1.0893  1.3338  1.2867
C       2.6147  -0.6747  -0.8684
C       2.0740  -1.8740  -0.1110
C       -2.4042  -1.2750  -0.4301
C       -2.4011  -1.0855  1.0710
N       1.5136  0.0779  -1.3252
N       1.0164  -1.4936  0.9287
N       -1.0419  -1.2786  -1.0632
N       -1.4697  -0.0481  1.4399
H       3.0243  -2.2976  0.2489
H       1.5537  -2.6218  -0.6983
H       -2.9108  -0.5072  -1.0141
H       -2.9826  -2.2133  -0.4665
H       1.8148  1.0266  -1.4907
H       1.3931  -0.2718  -2.2776
H       -1.9674  0.8317  1.4307
H       -1.2090  -0.1640  2.4071
H       -2.0184  -1.9723  1.5613
H       -3.4465  -0.9809  1.3754
H       0.6028  -2.3599  1.2540
H       1.6028  -1.2428  1.7360
H       3.4593  -1.0463  -1.4981
H       3.0215  0.0002  -0.1244
H       -0.8307  -2.2649  -1.1863
H       -1.2097  -0.9552  -2.0053
