27

Co      -0.0032  -0.0238  -0.0195
Cl      -1.1034  1.6170  -1.2132
Cl      1.2119  1.5129  1.4260
C       2.7934  -0.7120  -0.8377
C       2.1649  -1.9856  -0.1615
C       -2.6027  -1.3156  -0.4210
C       -2.4886  -1.2024  1.0774
N       1.5738  0.0275  -1.3767
N       1.0735  -1.4293  0.8785
N       -1.2027  -1.3161  -1.0138
N       -1.5678  -0.0695  1.3344
H       2.7781  -2.5839  0.5468
H       1.7336  -2.6528  -0.8987
H       -3.2044  -0.4785  -0.7585
H       -3.0116  -2.2408  -0.8392
H       1.6725  1.0388  -1.3697
H       1.1132  -0.2297  -2.2453
H       -1.9519  0.8421  1.0920
H       -1.1784  0.0029  2.2644
H       -2.1042  -2.1375  1.4608
H       -3.4117  -0.9823  1.5888
H       0.4757  -2.1540  1.2350
H       1.4075  -0.8392  1.6398
H       3.4542  -0.7525  -1.7271
H       3.2950  -0.1541  -0.0485
H       -0.7346  -2.2142  -1.0636
H       -1.1991  -0.8795  -1.9236
