27

Co      -0.0258  -0.0287  0.0116
Cl      -1.1212  1.6520  -1.2372
Cl      1.1891  1.4817  1.3915
C       2.8109  -0.7190  -0.8456
C       2.1819  -1.9860  -0.1585
C       -2.6125  -1.3111  -0.4276
C       -2.4724  -1.2033  1.0577
N       1.5903  0.0264  -1.3729
N       1.0791  -1.4492  0.8818
N       -1.1746  -1.2466  -0.9137
N       -1.5059  -0.0973  1.2563
H       2.7955  -2.5805  0.5521
H       1.7603  -2.6636  -0.8958
H       -3.2430  -0.5026  -0.7837
H       -2.9475  -2.2738  -0.8681
H       1.6824  1.0426  -1.3271
H       1.1436  -0.1984  -2.2551
H       -1.8851  0.8192  1.0168
H       -1.1109  -0.0098  2.1830
H       -2.0879  -2.1522  1.4223
H       -3.3602  -0.9456  1.6298
H       0.5109  -2.1920  1.2436
H       1.4172  -0.8604  1.6445
H       3.4529  -0.7809  -1.7460
H       3.3360  -0.1665  -0.0730
H       -0.6637  -2.1269  -0.8826
H       -1.1096  -0.8650  -1.8421
