27

Co      0.0482  0.0220  0.0299
Cl      -1.0789  1.6001  -1.2196
Cl      1.0865  1.3489  1.2859
C       2.5690  -0.7067  -0.8108
C       2.0628  -1.8281  -0.0546
C       -2.4377  -1.2777  -0.4356
C       -2.4007  -1.1382  1.0666
N       1.5162  0.1140  -1.3818
N       1.0383  -1.5394  0.8435
N       -1.0756  -1.3378  -1.0326
N       -1.4975  -0.0164  1.4317
H       2.9062  -2.3129  0.4025
H       1.6601  -2.5298  -0.7708
H       -2.9079  -0.4095  -0.8507
H       -3.0207  -2.1406  -0.7160
H       1.7935  1.0672  -1.4924
H       1.2328  -0.2088  -2.2885
H       -1.9470  0.8738  1.3632
H       -1.1604  -0.0969  2.3671
H       -2.0347  -2.0305  1.5571
H       -3.4166  -0.9730  1.4160
H       0.4581  -2.3739  0.9664
H       1.3812  -1.2650  1.7674
H       3.1523  -1.2002  -1.6013
H       3.2372  -0.0682  -0.2464
H       -0.7388  -2.2738  -1.0505
H       -1.1349  -1.0153  -1.9797
