27

Co      -0.0043  -0.0296  0.0031
Cl      -1.1071  1.6584  -1.2454
Cl      1.1815  1.4858  1.3870
C       2.6587  -0.7196  -0.8081
C       2.1573  -1.9603  -0.1044
C       -2.5561  -1.3512  -0.4450
C       -2.4405  -1.1429  1.0507
N       1.4599  0.0438  -1.2534
N       1.0718  -1.4802  0.8118
N       -1.1544  -1.2899  -0.9900
N       -1.4060  -0.0966  1.2767
H       2.9381  -2.4529  0.4593
H       1.7421  -2.6795  -0.7974
H       -3.1296  -0.5642  -0.9099
H       -3.0126  -2.3051  -0.6891
H       1.6754  1.0240  -1.3175
H       1.1757  -0.2325  -2.1716
H       -1.8144  0.8212  1.2016
H       -1.0427  -0.1436  2.2103
H       -2.1269  -2.0562  1.5414
H       -3.3839  -0.8454  1.4888
H       0.5545  -2.2578  1.1701
H       1.5033  -1.0302  1.6018
H       3.2974  -0.9545  -1.6447
H       3.2116  -0.0970  -0.1260
H       -0.7699  -2.2135  -1.0121
H       -1.2045  -0.9644  -1.9361
