27

Co      -0.0410  -0.0677  -0.0428
Cl      -1.1086  1.6449  -1.2347
Cl      1.2015  1.5043  1.4044
C       2.6843  -0.7441  -0.8194
C       2.1962  -1.9804  -0.0952
C       -2.5422  -1.3201  -0.4159
C       -2.4734  -1.1661  1.0872
N       1.4954  0.0685  -1.2372
N       1.1245  -1.4837  0.8270
N       -1.1357  -1.1831  -0.9627
N       -1.4835  -0.0780  1.2862
H       2.9938  -2.4500  0.4707
H       1.7809  -2.7206  -0.7641
H       -3.1371  -0.5272  -0.8465
H       -2.9527  -2.2796  -0.7294
H       1.7234  1.0600  -1.1530
H       1.2778  -0.0804  -2.2142
H       -1.9110  0.8233  1.1475
H       -1.1181  -0.0574  2.2237
H       -2.1290  -2.0642  1.5815
H       -3.4355  -0.9037  1.5027
H       0.6779  -2.2632  1.2961
H       1.5695  -0.9155  1.5511
H       3.2947  -0.9842  -1.6771
H       3.2689  -0.1383  -0.1483
H       -0.7162  -2.0977  -1.0186
H       -1.2122  -0.8291  -1.9004
