27

Co      0.0245  0.0739  0.0009
Cl      -1.0940  1.6140  -1.2274
Cl      1.1223  1.3737  1.3127
C       2.6667  -0.7318  -0.8164
C       2.1759  -1.9749  -0.0967
C       -2.4993  -1.3085  -0.4385
C       -2.4426  -1.1595  1.0781
N       1.4934  0.0668  -1.2734
N       1.1207  -1.5231  0.8570
N       -1.1351  -1.3768  -1.0796
N       -1.5410  -0.0260  1.4540
H       2.9857  -2.4654  0.4176
H       1.7408  -2.6822  -0.7836
H       -2.9808  -0.4427  -0.8604
H       -3.0879  -2.1751  -0.6963
H       1.7611  1.0250  -1.4209
H       1.1630  -0.2647  -2.1639
H       -2.0085  0.8609  1.4187
H       -1.1784  -0.1280  2.3865
H       -2.0603  -2.0544  1.5474
H       -3.4523  -1.0104  1.4449
H       0.5559  -2.3024  1.1457
H       1.5439  -1.1369  1.6802
H       3.3053  -0.9803  -1.6495
H       3.2302  -0.1141  -0.1362
H       -0.7888  -2.3145  -1.0908
H       -1.2233  -1.0688  -2.0303
