27

Co      0.0291  0.0179  0.0655
Cl      -1.0992  1.6164  -1.2217
Cl      1.1003  1.3513  1.2875
C       2.6514  -0.7308  -0.8074
C       2.0943  -1.8331  -0.0882
C       -2.5106  -1.2688  -0.4500
C       -2.3765  -1.1634  1.0398
N       1.5568  0.0598  -1.3343
N       1.0821  -1.4485  0.7831
N       -1.1371  -1.3519  -1.0077
N       -1.5007  -0.0086  1.3468
H       2.8767  -2.3797  0.4047
H       1.6634  -2.5032  -0.8218
H       -2.9694  -0.3836  -0.8435
H       -3.1059  -2.1232  -0.7354
H       1.8169  1.0185  -1.4812
H       1.2593  -0.2922  -2.2249
H       -1.9801  0.8625  1.2056
H       -1.2013  -0.0108  2.3005
H       -1.9202  -2.0542  1.4640
H       -3.3512  -1.0521  1.4972
H       0.5202  -2.2579  0.9966
H       1.4671  -1.1209  1.6559
H       3.2242  -1.1989  -1.6163
H       3.3243  -0.1033  -0.2309
H       -0.8129  -2.2966  -0.9814
H       -1.1506  -1.0583  -1.9649
