27

Co      -0.0640  0.0108  -0.0070
Cl      -1.0903  1.6208  -1.2111
Cl      1.1772  1.4545  1.3820
C       2.6979  -0.7166  -0.7752
C       2.1386  -1.9422  -0.1470
C       -2.5361  -1.2804  -0.4435
C       -2.3888  -1.1708  1.0334
N       1.5573  0.0308  -1.3883
N       1.1472  -1.5378  0.9009
N       -1.1420  -1.3257  -0.9752
N       -1.4784  -0.0433  1.3128
H       2.8339  -2.5447  0.4327
H       1.7188  -2.5811  -0.9196
H       -3.1107  -0.4335  -0.7888
H       -2.9711  -2.1905  -0.8516
H       1.7006  1.0284  -1.3937
H       1.1399  -0.2420  -2.2644
H       -1.8766  0.8742  1.2125
H       -1.0057  -0.0703  2.2016
H       -1.9775  -2.1094  1.3943
H       -3.3039  -0.9747  1.5763
H       0.6294  -2.3176  1.2445
H       1.4694  -0.9486  1.6714
H       3.3350  -0.8675  -1.6440
H       3.2498  -0.1551  -0.0386
H       -0.6362  -2.2058  -0.8321
H       -1.0780  -1.0489  -1.9363
