27

Co      -0.0057  -0.0408  -0.0112
Cl      -1.0699  1.5806  -1.1908
Cl      1.1792  1.4786  1.3937
C       2.6792  -0.7016  -0.8190
C       2.1052  -1.9084  -0.1127
C       -2.5387  -1.3000  -0.4395
C       -2.4295  -1.1655  1.0629
N       1.4970  0.0464  -1.3222
N       1.0142  -1.4027  0.7839
N       -1.1344  -1.2600  -0.9719
N       -1.4680  -0.0623  1.2840
H       2.8430  -2.4415  0.4721
H       1.6739  -2.6031  -0.8203
H       -3.0725  -0.4677  -0.8586
H       -3.0236  -2.2158  -0.7418
H       1.6940  1.0302  -1.3912
H       1.2386  -0.2527  -2.2414
H       -1.9104  0.8290  1.1162
H       -1.1428  -0.0230  2.2321
H       -2.0398  -2.0666  1.5154
H       -3.3811  -0.9548  1.5206
H       0.4842  -2.1704  1.1451
H       1.4388  -0.9497  1.5720
H       3.3445  -0.9782  -1.6191
H       3.2114  -0.0660  -0.1327
H       -0.7658  -2.1917  -0.9913
H       -1.1722  -0.9354  -1.9197
