27

Co      0.0000  0.0008  -0.0004
Cl      -1.1111  1.6265  -1.2160
Cl      1.1735  1.4462  1.3712
C       2.7084  -0.7327  -0.7919
C       2.1568  -1.9426  -0.1370
C       -2.5836  -1.2814  -0.4283
C       -2.4212  -1.1945  1.0509
N       1.5564  0.0441  -1.3262
N       1.1626  -1.4796  0.8770
N       -1.2018  -1.3452  -1.0163
N       -1.5483  -0.0303  1.3129
H       2.8414  -2.5206  0.4807
H       1.7416  -2.6090  -0.8863
H       -3.1470  -0.4127  -0.7406
H       -3.0489  -2.1722  -0.8447
H       1.7151  1.0402  -1.3237
H       1.0962  -0.2024  -2.1968
H       -1.9596  0.8688  1.0953
H       -1.1474  0.0291  2.2337
H       -1.9806  -2.1213  1.4075
H       -3.3439  -1.0293  1.5938
H       0.5968  -2.2307  1.2179
H       1.4839  -0.8934  1.6482
H       3.2888  -0.8826  -1.7066
H       3.3173  -0.1895  -0.0800
H       -0.7418  -2.2434  -0.9747
H       -1.1774  -0.9860  -1.9523
