27

Co      0.0007  -0.0080  -0.0090
Cl      -1.0747  1.5661  -1.1836
Cl      1.1810  1.4680  1.3822
C       2.7384  -0.7061  -0.8493
C       2.1664  -1.9791  -0.1320
C       -2.6117  -1.3079  -0.4362
C       -2.4271  -1.1712  1.0485
N       1.5083  0.0683  -1.2935
N       1.0520  -1.4178  0.8718
N       -1.2094  -1.2948  -1.0112
N       -1.4793  -0.0544  1.2559
H       2.8022  -2.5033  0.6113
H       1.7778  -2.7150  -0.8331
H       -3.2446  -0.5010  -0.7874
H       -2.9945  -2.2599  -0.8153
H       1.6235  1.0784  -1.2433
H       1.0110  -0.1316  -2.1697
H       -1.8617  0.8609  1.0233
H       -1.0825  0.0256  2.1765
H       -2.0260  -2.1095  1.4120
H       -3.3167  -0.9299  1.6271
H       0.4474  -2.1381  1.2252
H       1.3773  -0.8291  1.6402
H       3.3249  -0.7430  -1.8022
H       3.3093  -0.1669  -0.0983
H       -0.7340  -2.1848  -1.0306
H       -1.1923  -0.8774  -1.9292
