27

Co      0.0000  0.0092  -0.0004
Cl      -1.1194  1.6460  -1.2354
Cl      1.1874  1.4712  1.3879
C       2.7297  -0.7421  -0.8146
C       2.1808  -1.9684  -0.1216
C       -2.5975  -1.3322  -0.4363
C       -2.4731  -1.1945  1.0656
N       1.5494  0.0337  -1.3063
N       1.1427  -1.4817  0.8439
N       -1.2038  -1.3159  -1.0062
N       -1.5320  -0.0693  1.3206
H       2.9534  -2.5262  0.3930
H       1.7097  -2.6341  -0.8301
H       -3.1273  -0.4906  -0.8536
H       -3.1091  -2.2383  -0.7226
H       1.7862  1.0089  -1.4004
H       1.2769  -0.2721  -2.2167
H       -1.9953  0.8148  1.1984
H       -1.1914  -0.0763  2.2675
H       -2.0657  -2.0934  1.5092
H       -3.4330  -1.0124  1.5214
H       0.6338  -2.2600  1.2225
H       1.5963  -1.0200  1.6126
H       3.3973  -0.9998  -1.6222
H       3.2695  -0.1190  -0.1181
H       -0.8351  -2.2512  -1.0179
H       -1.2551  -1.0026  -1.9565
