27

Co      0.0268  0.0241  -0.0065
Cl      -1.0758  1.5805  -1.1953
Cl      1.1320  1.3803  1.3284
C       2.6194  -0.6816  -0.7986
C       2.1142  -1.9564  -0.0941
C       -2.5220  -1.3080  -0.4669
C       -2.3850  -1.1313  1.0616
N       1.4063  0.0771  -1.2155
N       1.1094  -1.4274  0.8720
N       -1.1524  -1.3292  -1.0971
N       -1.4490  -0.0079  1.3361
H       2.9968  -2.5139  0.2463
H       1.5310  -2.5962  -0.7562
H       -2.9658  -0.4517  -0.9592
H       -3.1805  -2.1758  -0.5796
H       1.7073  1.0280  -1.4409
H       1.2775  -0.3168  -2.1488
H       -1.9853  0.8525  1.2851
H       -1.1772  -0.0543  2.3033
H       -1.9338  -1.9890  1.5504
H       -3.3886  -1.0219  1.4598
H       0.6606  -2.2026  1.3563
H       1.7402  -1.0541  1.5923
H       3.3757  -0.9882  -1.5182
H       3.0697  0.0097  -0.0955
H       -0.9386  -2.3183  -1.1668
H       -1.2985  -1.0492  -2.0571
