27

Co      -0.0445  -0.0553  -0.0522
Cl      -1.0996  1.6544  -1.2342
Cl      1.2025  1.5253  1.4144
C       2.7082  -0.7220  -0.8406
C       2.2127  -2.0331  -0.1228
C       -2.5119  -1.2900  -0.4141
C       -2.4551  -1.1716  1.0838
N       1.4696  0.0606  -1.2734
N       1.0300  -1.5282  0.8429
N       -1.0841  -1.2571  -0.9306
N       -1.4723  -0.0889  1.3156
H       2.8896  -2.4566  0.6646
H       1.9165  -2.8355  -0.8100
H       -3.1124  -0.4711  -0.7801
H       -2.8740  -2.2360  -0.8661
H       1.5807  1.0788  -1.1256
H       1.0254  -0.0523  -2.1947
H       -1.8252  0.8422  1.1325
H       -1.0275  -0.0491  2.2216
H       -2.1424  -2.1173  1.5030
H       -3.3765  -0.8701  1.5618
H       0.4585  -2.2743  1.1865
H       1.3118  -0.9192  1.6302
H       3.2919  -0.7185  -1.8029
H       3.2633  -0.1783  -0.0866
H       -0.5610  -2.1298  -0.8664
H       -1.0593  -0.9232  -1.8764
