27

Co      0.0715  0.0700  0.0166
Cl      -1.1058  1.6257  -1.2352
Cl      1.1125  1.3678  1.3048
C       2.6569  -0.7220  -0.8242
C       2.1543  -1.9553  -0.0908
C       -2.5248  -1.3143  -0.4365
C       -2.4563  -1.1712  1.0781
N       1.4934  0.0766  -1.2910
N       1.0953  -1.5133  0.8629
N       -1.1547  -1.3925  -1.0718
N       -1.5489  -0.0378  1.4364
H       2.9603  -2.4497  0.4215
H       1.7153  -2.6607  -0.7797
H       -2.9964  -0.4408  -0.8526
H       -3.1212  -2.1751  -0.7002
H       1.7591  1.0329  -1.4640
H       1.1415  -0.2765  -2.1678
H       -2.0144  0.8453  1.3482
H       -1.2254  -0.1026  2.3845
H       -2.0740  -2.0681  1.5435
H       -3.4601  -1.0163  1.4566
H       0.4893  -2.2906  1.0928
H       1.5067  -1.1819  1.7194
H       3.2936  -0.9940  -1.6514
H       3.2282  -0.1004  -0.1539
H       -0.8319  -2.3380  -1.1084
H       -1.2389  -1.0629  -2.0166
