27

Co      0.0025  0.0114  -0.0084
Cl      -1.0818  1.6204  -1.2210
Cl      1.1536  1.4418  1.3684
C       2.5609  -0.7136  -0.7937
C       2.0667  -1.8358  -0.1303
C       -2.4483  -1.2808  -0.4154
C       -2.4036  -1.1172  1.0452
N       1.5354  0.0264  -1.3502
N       1.0763  -1.5498  0.8609
N       -1.1061  -1.3763  -1.0519
N       -1.4949  -0.0713  1.4064
H       2.9648  -2.2470  0.3289
H       1.6785  -2.5926  -0.7925
H       -2.9808  -0.4842  -0.9027
H       -2.9958  -2.2006  -0.5809
H       1.8044  0.9844  -1.4733
H       1.2561  -0.3057  -2.2527
H       -1.9208  0.8347  1.3609
H       -1.1456  -0.1771  2.3393
H       -2.0497  -2.0360  1.4887
H       -3.4105  -0.9634  1.4070
H       0.6025  -2.4102  1.0872
H       1.4760  -1.1993  1.7140
H       3.2997  -1.0604  -1.5084
H       3.0737  -0.1021  -0.0776
H       -0.7916  -2.3249  -1.0608
H       -1.1987  -1.0852  -2.0067
