27

Co      0.0227  0.0439  -0.0010
Cl      -1.0979  1.6494  -1.2433
Cl      1.1291  1.3976  1.3304
C       2.5625  -0.7220  -0.7721
C       2.1255  -1.9268  -0.0694
C       -2.4517  -1.3194  -0.4560
C       -2.4103  -1.1328  1.0700
N       1.4291  0.0602  -1.2508
N       1.1175  -1.5541  0.8103
N       -1.0970  -1.3940  -1.0811
N       -1.4689  -0.0308  1.4410
H       3.0753  -2.4078  0.2489
H       1.6424  -2.6014  -0.7530
H       -2.8425  -0.4405  -0.9622
H       -3.1615  -2.1561  -0.5830
H       1.7885  0.9913  -1.5102
H       1.3178  -0.3541  -2.1826
H       -1.9875  0.8419  1.5100
H       -1.1549  -0.2023  2.3905
H       -2.0412  -1.9928  1.6217
H       -3.4619  -0.9927  1.3505
H       0.6432  -2.3845  1.1205
H       1.6538  -1.2940  1.6423
H       3.2665  -1.1742  -1.4761
H       3.0948  -0.0158  -0.1543
H       -0.8701  -2.3767  -1.0769
H       -1.2435  -1.1938  -2.0668
