27

Co      0.0022  0.0175  0.0227
Cl      -1.0647  1.5824  -1.2128
Cl      1.0869  1.3314  1.2818
C       2.5799  -0.6969  -0.7938
C       2.0658  -1.8547  -0.0612
C       -2.4270  -1.3019  -0.4536
C       -2.3971  -1.1114  1.0659
N       1.4725  0.0856  -1.3127
N       1.0662  -1.4683  0.8173
N       -1.0490  -1.2322  -1.0113
N       -1.4277  -0.0313  1.3873
H       2.9762  -2.3842  0.2586
H       1.5476  -2.5070  -0.7497
H       -2.9005  -0.4822  -0.9706
H       -3.0117  -2.2036  -0.5990
H       1.8029  1.0251  -1.5148
H       1.4008  -0.3029  -2.2656
H       -1.9339  0.8475  1.4184
H       -1.1289  -0.1601  2.3377
H       -2.0347  -1.9764  1.6227
H       -3.4320  -0.9376  1.3715
H       0.6197  -2.3032  1.1577
H       1.6143  -1.1850  1.6306
H       3.2789  -1.2323  -1.4785
H       3.1347  0.0099  -0.2013
H       -0.7780  -2.1949  -1.0620
H       -1.1737  -0.9599  -1.9723
