27

Co      -0.0007  0.0114  0.0057
Cl      -1.1021  1.6578  -1.2475
Cl      1.1334  1.4106  1.3388
C       2.5686  -0.7229  -0.7968
C       2.0885  -1.8482  -0.1272
C       -2.4265  -1.2714  -0.4123
C       -2.4021  -1.1157  1.0499
N       1.5401  0.0280  -1.3300
N       1.0965  -1.5700  0.8671
N       -1.0780  -1.3653  -1.0348
N       -1.4964  -0.0698  1.4236
H       2.9944  -2.2485  0.3289
H       1.7050  -2.6128  -0.7847
H       -2.9512  -0.4717  -0.9011
H       -2.9709  -2.1897  -0.5903
H       1.8122  0.9859  -1.4359
H       1.2577  -0.2839  -2.2387
H       -1.9224  0.8362  1.3811
H       -1.1487  -0.1802  2.3580
H       -2.0529  -2.0360  1.4965
H       -3.4152  -0.9634  1.3992
H       0.6305  -2.4367  1.0935
H       1.4978  -1.2211  1.7218
H       3.2888  -1.0697  -1.5271
H       3.1002  -0.1193  -0.0900
H       -0.7573  -2.3109  -1.0312
H       -1.1629  -1.0805  -1.9911
