27

Co      -0.0031  -0.0023  0.0110
Cl      -1.0913  1.6359  -1.2256
Cl      1.1170  1.3831  1.3172
C       2.6315  -0.6805  -0.8258
C       2.1116  -1.9368  -0.0854
C       -2.4528  -1.2656  -0.4665
C       -2.3669  -1.1416  1.0656
N       1.4408  0.0815  -1.2921
N       1.0284  -1.5014  0.8540
N       -1.0476  -1.3177  -0.9896
N       -1.4321  -0.0198  1.3509
H       2.9960  -2.4567  0.2869
H       1.5889  -2.6059  -0.7570
H       -2.8328  -0.3746  -0.9608
H       -3.1213  -2.1074  -0.6510
H       1.7225  1.0381  -1.4690
H       1.3485  -0.2833  -2.2464
H       -1.9687  0.8368  1.2979
H       -1.1573  -0.0576  2.3175
H       -1.9148  -2.0070  1.5419
H       -3.3726  -1.0425  1.4588
H       0.5740  -2.3235  1.2186
H       1.5981  -1.2165  1.6553
H       3.3861  -1.0558  -1.5210
H       3.0912  0.0295  -0.1528
H       -0.8142  -2.2991  -0.9347
H       -1.1201  -1.1395  -1.9844
