27

Co      0.0523  0.0228  0.0239
Cl      -1.0873  1.5908  -1.2140
Cl      1.1275  1.3886  1.3310
C       2.6261  -0.7092  -0.7921
C       2.0685  -1.8560  -0.0796
C       -2.5443  -1.3417  -0.4466
C       -2.4652  -1.1641  1.0664
N       1.5188  0.0581  -1.3431
N       1.0935  -1.4306  0.8099
N       -1.1597  -1.2571  -1.0060
N       -1.4916  -0.0686  1.3345
H       2.9537  -2.4384  0.2326
H       1.5147  -2.4706  -0.7841
H       -3.0282  -0.5154  -0.9451
H       -3.1241  -2.2443  -0.6030
H       1.8545  0.9959  -1.6055
H       1.4357  -0.3843  -2.2713
H       -2.0097  0.7974  1.2839
H       -1.2420  -0.1321  2.3094
H       -2.0808  -2.0288  1.6052
H       -3.4808  -0.9910  1.4157
H       0.6156  -2.2470  1.1497
H       1.6568  -1.1576  1.6172
H       3.3572  -1.2455  -1.4518
H       3.1568  0.0039  -0.1798
H       -0.9093  -2.2322  -1.0989
H       -1.2895  -0.9573  -1.9598
