27

Co      0.0725  0.0621  0.0246
Cl      -1.1033  1.6198  -1.2363
Cl      1.1030  1.3444  1.2929
C       2.5784  -0.7334  -0.7788
C       2.0981  -1.8619  -0.1355
C       -2.5141  -1.3085  -0.4064
C       -2.4494  -1.1327  1.0462
N       1.5158  0.0067  -1.2355
N       1.1533  -1.4531  0.8334
N       -1.1621  -1.3245  -1.0443
N       -1.5197  -0.0950  1.3738
H       2.9743  -2.2842  0.3412
H       1.6818  -2.6202  -0.7821
H       -3.1021  -0.5454  -0.8902
H       -3.0010  -2.2649  -0.5634
H       1.8102  0.9539  -1.4397
H       1.1593  -0.3668  -2.1021
H       -1.9494  0.8078  1.2733
H       -1.2248  -0.1637  2.3286
H       -2.1090  -2.0581  1.4953
H       -3.4462  -0.9473  1.4251
H       0.6393  -2.2587  1.1349
H       1.6054  -1.0705  1.6401
H       3.2790  -1.0209  -1.5493
H       3.1216  -0.1536  -0.0542
H       -0.8462  -2.2697  -1.1256
H       -1.2813  -0.9661  -1.9769
