27

Co      0.0018  0.0239  0.0023
Cl      -1.0445  1.5485  -1.1828
Cl      1.1141  1.3835  1.3184
C       2.6259  -0.6864  -0.8329
C       2.0905  -1.8979  -0.0829
C       -2.4575  -1.2812  -0.4489
C       -2.3894  -1.1304  1.0608
N       1.4750  0.0941  -1.3452
N       0.9874  -1.4806  0.8359
N       -1.0705  -1.2991  -1.0113
N       -1.4480  -0.0287  1.3786
H       2.8754  -2.3832  0.4676
H       1.6807  -2.6197  -0.7763
H       -2.9624  -0.4416  -0.8848
H       -2.9878  -2.1769  -0.7203
H       1.7004  1.0634  -1.4408
H       1.1829  -0.2187  -2.2540
H       -1.8945  0.8679  1.3171
H       -1.0861  -0.0917  2.3050
H       -2.0150  -2.0324  1.5244
H       -3.3713  -0.9430  1.4684
H       0.4232  -2.2758  1.0779
H       1.3768  -1.1248  1.6929
H       3.2720  -1.0023  -1.6366
H       3.1866  -0.0490  -0.1751
H       -0.7050  -2.2259  -0.9964
H       -1.1137  -1.0016  -1.9668
