27

Co      -0.0611  -0.0646  -0.0147
Cl      -1.1086  1.6526  -1.2353
Cl      1.2085  1.5232  1.4073
C       2.7981  -0.7393  -0.8678
C       2.2573  -2.0621  -0.0658
C       -2.5697  -1.3342  -0.4630
C       -2.4505  -1.1904  1.0927
N       1.4738  0.1004  -1.2556
N       1.0401  -1.4719  0.7837
N       -1.1379  -1.2557  -0.9743
N       -1.4555  -0.0280  1.2985
H       2.9344  -2.6165  0.5999
H       1.8348  -2.7541  -0.7850
H       -3.0633  -0.4518  -0.8433
H       -3.0732  -2.2177  -0.8540
H       1.6512  1.1035  -1.1782
H       1.2367  -0.0590  -2.2257
H       -1.9097  0.8602  1.1754
H       -1.0710  -0.0014  2.2318
H       -2.0609  -2.0674  1.5897
H       -3.3914  -0.9373  1.5547
H       0.4911  -2.2083  1.1968
H       1.4497  -0.9556  1.5552
H       3.3243  -0.9556  -1.8015
H       3.4232  -0.0945  -0.2565
H       -0.7109  -2.1696  -0.9678
H       -1.1490  -0.9369  -1.9258
