27

Co      -0.0051  -0.0682  -0.0184
Cl      -1.1079  1.6270  -1.2066
Cl      1.2108  1.5118  1.4240
C       2.7024  -0.7093  -0.8144
C       2.1250  -1.9239  -0.1225
C       -2.5801  -1.2848  -0.4381
C       -2.4180  -1.1877  1.0667
N       1.5314  0.0584  -1.3273
N       1.1035  -1.4372  0.8602
N       -1.1985  -1.3264  -1.0359
N       -1.5315  -0.0203  1.2837
H       2.8840  -2.5148  0.3764
H       1.6230  -2.5650  -0.8383
H       -3.0702  -0.4014  -0.8170
H       -3.1458  -2.1527  -0.7422
H       1.7313  1.0483  -1.3528
H       1.2957  -0.2077  -2.2608
H       -2.0068  0.8484  1.0505
H       -1.2254  0.0774  2.2452
H       -1.9382  -2.0706  1.4758
H       -3.3715  -1.0704  1.5605
H       0.6224  -2.2130  1.2821
H       1.5649  -0.9321  1.6012
H       3.3782  -0.9830  -1.6075
H       3.2325  -0.0807  -0.1174
H       -0.8751  -2.2808  -1.0816
H       -1.2485  -0.9809  -1.9770
