27

Co      0.0652  0.0220  0.0178
Cl      -1.0789  1.6001  -1.2196
Cl      1.0865  1.3465  1.2859
C       2.5639  -0.7070  -0.8213
C       2.0770  -1.8542  -0.0413
C       -2.4207  -1.2819  -0.4419
C       -2.4149  -1.1382  1.0903
N       1.4641  0.1085  -1.3034
N       1.0204  -1.4939  0.7911
N       -1.0617  -1.3415  -1.0620
N       -1.5130  -0.0067  1.4614
H       3.0015  -2.3105  0.3273
H       1.6163  -2.5614  -0.7094
H       -2.7989  -0.3877  -0.9221
H       -3.1260  -2.1073  -0.6113
H       1.8164  1.0412  -1.5177
H       1.3470  -0.2717  -2.2457
H       -2.0396  0.8493  1.4189
H       -1.2675  -0.0936  2.4359
H       -2.0223  -1.9894  1.6406
H       -3.4820  -1.0326  1.3555
H       0.4865  -2.3289  0.9975
H       1.5088  -1.3111  1.6868
H       3.2191  -1.2654  -1.5293
H       3.1636  0.0014  -0.2629
H       -0.8577  -2.3301  -1.1366
H       -1.2115  -1.0652  -2.0245
