27

Co      -0.0587  -0.0587  -0.0260
Cl      -1.0937  1.6416  -1.2213
Cl      1.1911  1.5006  1.3985
C       2.7267  -0.7098  -0.8583
C       2.1883  -1.9949  -0.1255
C       -2.4853  -1.2566  -0.4317
C       -2.3879  -1.1525  1.0714
N       1.5034  0.0765  -1.3119
N       1.0204  -1.5186  0.8729
N       -1.0924  -1.3465  -1.0185
N       -1.4867  -0.0179  1.3616
H       2.8520  -2.4667  0.6281
H       1.8517  -2.7594  -0.8255
H       -3.0276  -0.3930  -0.7774
H       -2.9540  -2.1495  -0.8467
H       1.6017  1.0950  -1.1729
H       1.0527  -0.0535  -2.2267
H       -1.8653  0.8982  1.1708
H       -1.0532  0.0229  2.2707
H       -1.9924  -2.0825  1.4501
H       -3.3195  -0.9556  1.5692
H       0.4497  -2.2794  1.1803
H       1.3011  -0.9434  1.6763
H       3.3043  -0.7575  -1.8083
H       3.2999  -0.1619  -0.1224
H       -0.6253  -2.2411  -0.9746
H       -1.0647  -0.9872  -1.9545
