27

Co      -0.0591  -0.0616  -0.0421
Cl      -1.0937  1.6374  -1.2171
Cl      1.1911  1.5051  1.4027
C       2.6508  -0.7194  -0.8423
C       2.1601  -1.9458  -0.0776
C       -2.4916  -1.2622  -0.4323
C       -2.4018  -1.1691  1.0739
N       1.5108  0.1122  -1.3429
N       1.0557  -1.5928  0.8830
N       -1.0823  -1.2621  -0.9439
N       -1.4725  -0.0372  1.3046
H       2.9949  -2.3973  0.4455
H       1.7664  -2.6904  -0.7569
H       -2.9828  -0.3975  -0.8433
H       -3.0053  -2.1506  -0.7758
H       1.7372  1.1034  -1.2328
H       1.3176  -0.0286  -2.3302
H       -1.9324  0.8454  1.1789
H       -1.0909  -0.0154  2.2324
H       -1.9773  -2.0619  1.5098
H       -3.3636  -1.0012  1.5296
H       0.6026  -2.4277  1.2084
H       1.4454  -1.1328  1.6923
H       3.2782  -1.0375  -1.6583
H       3.2338  -0.0891  -0.1956
H       -0.6869  -2.1857  -0.8577
H       -1.0962  -1.0308  -1.9239
