27

Co      -0.0106  -0.0731  0.0005
Cl      -1.1257  1.6619  -1.2306
Cl      1.1881  1.4782  1.3895
C       2.7102  -0.7212  -0.8102
C       2.1517  -1.9412  -0.1243
C       -2.5730  -1.2754  -0.4374
C       -2.4115  -1.1886  1.0616
N       1.5139  0.0428  -1.2678
N       1.1139  -1.4207  0.8247
N       -1.1655  -1.2787  -0.9696
N       -1.4987  -0.0384  1.2444
H       2.9014  -2.5090  0.4108
H       1.6741  -2.6073  -0.8330
H       -3.0725  -0.4037  -0.8228
H       -3.0963  -2.1614  -0.7663
H       1.7096  1.0351  -1.2810
H       1.2678  -0.2030  -2.2051
H       -1.9691  0.8328  0.9947
H       -1.2015  0.0817  2.2099
H       -1.9414  -2.0804  1.4664
H       -3.3491  -1.0434  1.5773
H       0.6406  -2.1880  1.2809
H       1.5843  -0.8950  1.5526
H       3.3575  -0.9678  -1.6361
H       3.2590  -0.1052  -0.1176
H       -0.8187  -2.2226  -0.9685
H       -1.1857  -0.9664  -1.9221
