27

Co      -0.0060  0.0804  0.0267
Cl      -1.0647  1.5867  -1.2080
Cl      1.1365  1.4052  1.3411
C       2.6034  -0.7227  -0.8238
C       2.0857  -1.8436  -0.1220
C       -2.4758  -1.3132  -0.4504
C       -2.3927  -1.1090  1.0263
N       1.5423  0.0079  -1.3260
N       1.0532  -1.5185  0.8131
N       -1.1337  -1.4111  -1.0736
N       -1.4601  -0.0705  1.4066
H       3.0499  -2.2595  0.2390
H       1.6303  -2.5873  -0.7511
H       -2.9420  -0.5225  -1.0363
H       -3.1302  -2.2212  -0.4474
H       1.8975  0.9359  -1.6257
H       1.4061  -0.4467  -2.2357
H       -1.9722  0.8066  1.4870
H       -1.1708  -0.2619  2.3607
H       -1.9923  -1.9976  1.4986
H       -3.4198  -1.0138  1.3714
H       0.6126  -2.4025  1.0487
H       1.5904  -1.3350  1.6801
H       3.4185  -1.1912  -1.4379
H       3.0618  -0.0325  -0.1301
H       -0.9324  -2.4037  -1.0696
H       -1.2695  -1.2156  -2.0588
