27

Co      0.0067  0.0316  0.0201
Cl      -1.0817  1.6229  -1.2409
Cl      1.1094  1.3697  1.3048
C       2.6064  -0.6824  -0.8202
C       2.1192  -1.9518  -0.0705
C       -2.4749  -1.3623  -0.4681
C       -2.4154  -1.0904  1.0577
N       1.4162  0.0900  -1.2642
N       1.0573  -1.5140  0.8851
N       -1.0884  -1.2759  -1.0494
N       -1.3583  -0.0700  1.3658
H       3.0273  -2.4575  0.2805
H       1.5865  -2.6297  -0.7259
H       -2.9958  -0.5941  -1.0408
H       -3.0256  -2.3096  -0.5398
H       1.7188  1.0375  -1.4670
H       1.2959  -0.2873  -2.2069
H       -1.8305  0.8353  1.4633
H       -1.0285  -0.2574  2.3059
H       -2.1158  -1.9718  1.6294
H       -3.4243  -0.8311  1.3793
H       0.5983  -2.3324  1.2487
H       1.6397  -1.2292  1.6815
H       3.3496  -1.0491  -1.5317
H       3.0824  0.0192  -0.1533
H       -0.8135  -2.2365  -1.1298
H       -1.2274  -0.9791  -2.0013
