27

Co      -0.0568  -0.0285  -0.0213
Cl      -1.0809  1.6122  -1.2084
Cl      1.1782  1.4767  1.3838
C       2.7003  -0.7358  -0.8461
C       2.1716  -1.9425  -0.0965
C       -2.4767  -1.2638  -0.4358
C       -2.4087  -1.1672  1.0773
N       1.5272  0.0659  -1.3131
N       1.0348  -1.5046  0.7911
N       -1.0847  -1.3052  -0.9872
N       -1.5101  -0.0224  1.3717
H       2.9488  -2.4032  0.5038
H       1.7957  -2.6892  -0.7825
H       -2.9464  -0.3865  -0.8435
H       -3.0319  -2.1328  -0.7605
H       1.7507  1.0492  -1.2996
H       1.2876  -0.1494  -2.2652
H       -1.9769  0.8564  1.2586
H       -1.1469  -0.0274  2.3068
H       -1.9838  -2.0570  1.5198
H       -3.3910  -1.0284  1.4975
H       0.5292  -2.3092  1.1066
H       1.4199  -1.0658  1.6110
H       3.3167  -1.0369  -1.6750
H       3.2853  -0.1070  -0.1958
H       -0.7105  -2.2368  -0.9331
H       -1.1162  -1.0478  -1.9571
