27

Co      -0.0355  -0.0651  -0.0648
Cl      -1.0735  1.5965  -1.1941
Cl      1.2043  1.5129  1.4253
C       2.6298  -0.6974  -0.8026
C       2.1200  -1.9433  -0.0996
C       -2.4964  -1.2877  -0.4281
C       -2.4236  -1.1532  1.0837
N       1.4687  0.0856  -1.3179
N       1.0753  -1.5011  0.8730
N       -1.1125  -1.2599  -1.0195
N       -1.4861  -0.0360  1.3298
H       2.9268  -2.4563  0.4046
H       1.6697  -2.6352  -0.7937
H       -3.0250  -0.4441  -0.8394
H       -3.0028  -2.1897  -0.7336
H       1.6804  1.0744  -1.2866
H       1.2613  -0.1296  -2.2788
H       -1.9285  0.8582  1.2025
H       -1.1105  -0.0268  2.2598
H       -2.0391  -2.0431  1.5556
H       -3.4020  -0.9585  1.4921
H       0.6170  -2.2892  1.2974
H       1.5137  -0.9723  1.6171
H       3.3081  -0.9460  -1.6004
H       3.1473  -0.0666  -0.1029
H       -0.7357  -2.1904  -1.0497
H       -1.1902  -0.9340  -1.9662
