27

Co      -0.0170  0.0083  0.0121
Cl      -1.0967  1.6314  -1.2350
Cl      1.1711  1.4668  1.3772
C       2.6922  -0.7196  -0.8331
C       2.1445  -1.9347  -0.0984
C       -2.5584  -1.3542  -0.4462
C       -2.4578  -1.1551  1.0515
N       1.5435  0.0645  -1.3723
N       1.0676  -1.5369  0.8703
N       -1.1568  -1.2847  -0.9812
N       -1.4425  -0.0940  1.3164
H       2.9375  -2.4627  0.4106
H       1.7025  -2.6222  -0.8047
H       -3.1341  -0.5677  -0.9145
H       -3.0097  -2.3079  -0.6958
H       1.7731  1.0391  -1.4416
H       1.2854  -0.2309  -2.2916
H       -1.8668  0.8182  1.2895
H       -1.0591  -0.1845  2.2403
H       -2.1277  -2.0678  1.5332
H       -3.4112  -0.8884  1.4848
H       0.5519  -2.3522  1.1449
H       1.4795  -1.1510  1.7024
H       3.3598  -1.0430  -1.6197
H       3.2445  -0.0812  -0.1662
H       -0.7554  -2.2028  -0.9854
H       -1.1920  -0.9705  -1.9303
