27

Co      -0.0703  -0.0199  -0.0090
Cl      -1.1119  1.6427  -1.2318
Cl      1.2014  1.4901  1.4042
C       2.8207  -0.7263  -0.8451
C       2.1986  -2.0007  -0.1594
C       -2.5723  -1.3052  -0.4271
C       -2.4636  -1.1891  1.0675
N       1.6124  0.0338  -1.3946
N       1.1144  -1.4958  0.9176
N       -1.1599  -1.2677  -0.9706
N       -1.5324  -0.0659  1.3304
H       2.8332  -2.6036  0.5138
H       1.7613  -2.6631  -0.8973
H       -3.1955  -0.4898  -0.7842
H       -2.9388  -2.2542  -0.8495
H       1.7138  1.0495  -1.3183
H       1.1946  -0.1694  -2.2929
H       -1.9185  0.8521  1.1634
H       -1.0909  -0.0426  2.2390
H       -2.0742  -2.1287  1.4434
H       -3.3794  -0.9667  1.5935
H       0.5873  -2.2553  1.3038
H       1.4568  -0.8742  1.6618
H       3.4745  -0.7918  -1.7342
H       3.3380  -0.1728  -0.0676
H       -0.6427  -2.1476  -0.9484
H       -1.1209  -0.8807  -1.8951
