27

Co      -0.0502  -0.0268  -0.0317
Cl      -1.0779  1.5847  -1.2019
Cl      1.2114  1.5120  1.4201
C       2.7906  -0.7207  -0.8799
C       2.1944  -2.0005  -0.1219
C       -2.5601  -1.3359  -0.4332
C       -2.4828  -1.1633  1.0899
N       1.5488  0.0610  -1.3227
N       1.0420  -1.4369  0.8555
N       -1.1672  -1.2549  -1.0411
N       -1.5190  -0.0578  1.3566
H       2.9160  -2.5277  0.5002
H       1.7321  -2.7120  -0.7889
H       -3.1435  -0.5387  -0.8776
H       -3.0142  -2.2831  -0.6978
H       1.7323  1.0561  -1.3092
H       1.2935  -0.1618  -2.2675
H       -1.9582  0.8397  1.2434
H       -1.1572  -0.0704  2.2959
H       -2.1101  -2.0601  1.5602
H       -3.4504  -0.9510  1.5099
H       0.5397  -2.2010  1.2774
H       1.4976  -0.9294  1.6008
H       3.4803  -0.8922  -1.7017
H       3.2825  -0.0964  -0.1437
H       -0.7788  -2.1837  -1.1565
H       -1.2539  -0.8462  -1.9589
