27

Co      -0.0498  -0.0103  -0.0234
Cl      -1.0832  1.5876  -1.1981
Cl      1.1705  1.4472  1.3646
C       2.7002  -0.7315  -0.8017
C       2.1916  -1.9956  -0.0468
C       -2.5874  -1.3251  -0.4624
C       -2.4325  -1.1979  1.0691
N       1.4869  0.1292  -1.3134
N       1.1464  -1.5220  0.8588
N       -1.1550  -1.1771  -0.9273
N       -1.4454  -0.0269  1.2404
H       2.9499  -2.6087  0.4348
H       1.7110  -2.6175  -0.8008
H       -3.1209  -0.4581  -0.8260
H       -3.0412  -2.2267  -0.8705
H       1.7284  1.1141  -1.2696
H       1.2956  -0.0698  -2.2820
H       -1.9245  0.8556  1.1657
H       -1.0260  -0.0246  2.1522
H       -2.0137  -2.0752  1.5505
H       -3.3643  -0.9562  1.5712
H       0.6581  -2.2877  1.2956
H       1.5772  -0.9819  1.6047
H       3.2359  -1.0789  -1.6856
H       3.3588  -0.0848  -0.2267
H       -0.6847  -2.0718  -0.8430
H       -1.1488  -0.9222  -1.9001
