27

Co      -0.0690  -0.0582  -0.0249
Cl      -1.0872  1.6212  -1.2017
Cl      1.2146  1.5201  1.4348
C       2.6874  -0.6978  -0.7750
C       2.1023  -1.9144  -0.1507
C       -2.5326  -1.2747  -0.4397
C       -2.3810  -1.1640  1.0401
N       1.5505  0.0361  -1.4122
N       1.1107  -1.5045  0.8977
N       -1.1478  -1.3251  -0.9993
N       -1.4752  -0.0333  1.2926
H       2.7812  -2.5389  0.4327
H       1.6683  -2.5370  -0.9306
H       -3.1065  -0.4222  -0.7745
H       -2.9772  -2.1800  -0.8489
H       1.6623  1.0455  -1.3684
H       1.1670  -0.2109  -2.3057
H       -1.8603  0.8855  1.1314
H       -1.0202  -0.0084  2.1904
H       -1.9669  -2.0950  1.4082
H       -3.2952  -0.9659  1.5793
H       0.6096  -2.2817  1.2678
H       1.4325  -0.8829  1.6516
H       3.3381  -0.8591  -1.6265
H       3.2240  -0.1280  -0.0352
H       -0.6651  -2.2160  -0.9209
H       -1.0993  -0.9939  -1.9428
