27

Co      -0.0611  -0.0582  -0.0182
Cl      -1.0996  1.6586  -1.2383
Cl      1.2025  1.5232  1.4103
C       2.6931  -0.7448  -0.8332
C       2.1942  -1.9678  -0.1005
C       -2.5053  -1.3074  -0.4364
C       -2.4290  -1.1550  1.0676
N       1.4887  0.0402  -1.2528
N       1.0369  -1.4954  0.7519
N       -1.0982  -1.2775  -0.9564
N       -1.4417  -0.0736  1.3099
H       2.9661  -2.4014  0.5401
H       1.8472  -2.7400  -0.7804
H       -3.0312  -0.4828  -0.8805
H       -2.9896  -2.2294  -0.7364
H       1.7012  1.0287  -1.2268
H       1.2445  -0.1577  -2.2078
H       -1.8675  0.8299  1.2180
H       -1.0674  -0.0954  2.2419
H       -2.0804  -2.0586  1.5462
H       -3.3874  -0.9089  1.4895
H       0.5405  -2.2890  1.1054
H       1.4284  -1.0255  1.5554
H       3.2961  -1.0004  -1.6875
H       3.2781  -0.1218  -0.1770
H       -0.6993  -2.1989  -0.9170
H       -1.1299  -1.0083  -1.9223
