27

Co      -0.0668  0.0137  -0.0190
Cl      -1.0623  1.5833  -1.1947
Cl      1.2057  1.5224  1.4167
C       2.7526  -0.7169  -0.8797
C       2.2003  -2.0115  -0.1127
C       -2.5781  -1.3367  -0.4595
C       -2.4360  -1.1649  1.0456
N       1.5058  0.0551  -1.3252
N       0.9818  -1.5130  0.8277
N       -1.1447  -1.2810  -0.9355
N       -1.4069  -0.0993  1.2599
H       2.9451  -2.4700  0.5456
H       1.8176  -2.7785  -0.7787
H       -3.1396  -0.5438  -0.9346
H       -3.0188  -2.2918  -0.7281
H       1.6976  1.0457  -1.3446
H       1.2320  -0.1884  -2.2571
H       -1.8459  0.8053  1.2190
H       -1.0059  -0.1478  2.1782
H       -2.0625  -2.0837  1.4761
H       -3.3519  -0.9109  1.5581
H       0.4576  -2.3031  1.1515
H       1.3947  -1.0913  1.6418
H       3.4410  -0.8836  -1.7040
H       3.2395  -0.0795  -0.1509
H       -0.7216  -2.1934  -0.8368
H       -1.1392  -1.0583  -1.9174
