27

Co      0.0123  -0.0301  -0.0276
Cl      -1.1071  1.6542  -1.2413
Cl      1.1815  1.4879  1.3912
C       2.6984  -0.6890  -0.8114
C       2.1905  -2.0681  -0.0683
C       -2.5795  -1.3697  -0.4631
C       -2.4779  -1.1829  1.0893
N       1.3891  0.1067  -1.2781
N       1.0556  -1.5039  0.8657
N       -1.1346  -1.2446  -0.9597
N       -1.4096  -0.0784  1.2801
H       2.9066  -2.6657  0.4895
H       1.7099  -2.7046  -0.8082
H       -3.1048  -0.5158  -0.8667
H       -3.0413  -2.2791  -0.8396
H       1.5691  1.0984  -1.3176
H       1.1257  -0.1600  -2.2079
H       -1.8356  0.8319  1.1959
H       -1.0160  -0.0942  2.2061
H       -2.1706  -2.0786  1.6197
H       -3.4159  -0.8431  1.5280
H       0.4810  -2.2244  1.2753
H       1.5013  -1.0148  1.6292
H       3.3158  -0.8418  -1.6953
H       3.2251  -0.0316  -0.1367
H       -0.7024  -2.1515  -0.9562
H       -1.1604  -0.9292  -1.9117
