27

Co      -0.0233  -0.0276  0.0100
Cl      -1.1010  1.6399  -1.2392
Cl      1.1753  1.4773  1.3857
C       2.7134  -0.7175  -0.8416
C       2.1319  -1.9157  -0.1026
C       -2.5330  -1.3373  -0.4356
C       -2.4705  -1.1615  1.0684
N       1.5688  0.0603  -1.3998
N       1.0422  -1.5073  0.8512
N       -1.1272  -1.2530  -0.9643
N       -1.4720  -0.0898  1.3355
H       2.9016  -2.4584  0.4253
H       1.6877  -2.5948  -0.8153
H       -3.1003  -0.5402  -0.8913
H       -2.9780  -2.2847  -0.7190
H       1.7795  1.0412  -1.4395
H       1.3362  -0.2204  -2.3318
H       -1.8943  0.8182  1.2599
H       -1.1098  -0.1423  2.2699
H       -2.1404  -2.0699  1.5585
H       -3.4366  -0.9053  1.4763
H       0.5307  -2.3226  1.1322
H       1.4478  -1.1109  1.6812
H       3.3851  -1.0641  -1.6155
H       3.2636  -0.0748  -0.1789
H       -0.7279  -2.1733  -1.0023
H       -1.1645  -0.9071  -1.9028
