27

Co      0.0587  0.0607  0.0235
Cl      -1.0603  1.5678  -1.2094
Cl      1.1070  1.3711  1.3118
C       2.6127  -0.6707  -0.8305
C       2.0777  -1.9161  -0.0715
C       -2.5222  -1.3757  -0.4656
C       -2.4527  -1.1184  1.0585
N       1.4391  0.0872  -1.3259
N       1.0024  -1.4674  0.8627
N       -1.1287  -1.2823  -1.0348
N       -1.3958  -0.0907  1.3531
H       2.9593  -2.4403  0.2991
H       1.5437  -2.5842  -0.7371
H       -3.0411  -0.6010  -1.0272
H       -3.0710  -2.3187  -0.5510
H       1.7458  1.0273  -1.6081
H       1.2949  -0.3631  -2.2377
H       -1.8771  0.8052  1.4038
H       -1.1055  -0.2454  2.3073
H       -2.1466  -2.0021  1.6214
H       -3.4569  -0.8627  1.3951
H       0.4743  -2.2739  1.1473
H       1.5641  -1.2562  1.7037
H       3.3818  -1.0737  -1.5094
H       3.0723  0.0464  -0.1621
H       -0.8688  -2.2483  -1.1347
H       -1.2660  -0.9742  -1.9848
