27

Co      0.0007  0.0003  -0.0090
Cl      -1.0830  1.5856  -1.2031
Cl      1.1949  1.4931  1.3989
C       2.7596  -0.7155  -0.8720
C       2.1904  -2.0049  -0.1167
C       -2.6256  -1.3587  -0.4442
C       -2.4789  -1.1712  1.0632
N       1.5013  0.0579  -1.2736
N       1.0321  -1.4199  0.8387
N       -1.2114  -1.2655  -1.0011
N       -1.4629  -0.0934  1.2635
H       2.9142  -2.5089  0.5237
H       1.7459  -2.7400  -0.7769
H       -3.2249  -0.5789  -0.9004
H       -3.0547  -2.3260  -0.6932
H       1.6946  1.0471  -1.3200
H       1.1918  -0.2013  -2.1896
H       -1.8974  0.8069  1.1264
H       -1.1265  -0.0798  2.2104
H       -2.1111  -2.0816  1.5138
H       -3.4059  -0.9130  1.5546
H       0.4845  -2.1673  1.2298
H       1.4896  -0.9557  1.6047
H       3.4333  -0.8602  -1.7177
H       3.2615  -0.0964  -0.1363
H       -0.8272  -2.1926  -1.0738
H       -1.2701  -0.8940  -1.9334
