27

Co      -0.0640  -0.0025  -0.0001
Cl      -1.0856  1.5942  -1.2047
Cl      1.1730  1.4476  1.3654
C       2.7858  -0.7146  -0.8372
C       2.2052  -2.0228  -0.0848
C       -2.5834  -1.3243  -0.4667
C       -2.4137  -1.1788  1.0619
N       1.5355  0.1253  -1.3774
N       1.1161  -1.5211  0.9292
N       -1.1749  -1.2765  -1.0170
N       -1.4648  0.0023  1.3150
H       2.8193  -2.6879  0.5540
H       1.7475  -2.6328  -0.8694
H       -3.1703  -0.4608  -0.7722
H       -2.9999  -2.2302  -0.9315
H       1.6540  1.1374  -1.2732
H       1.1184  -0.0508  -2.2858
H       -1.8675  0.9182  1.2143
H       -0.9717  -0.0106  2.1984
H       -2.0094  -2.0908  1.4788
H       -3.3181  -0.9279  1.6106
H       0.5320  -2.2540  1.2846
H       1.4257  -0.9095  1.6985
H       3.2913  -0.8671  -1.8162
H       3.4395  -0.1381  -0.1900
H       -0.6307  -2.1423  -0.9754
H       -1.1177  -0.8885  -1.9432
