27

Co      0.0018  0.0218  0.0047
Cl      -1.0672  1.5631  -1.1832
Cl      1.1304  1.3904  1.3291
C       2.6182  -0.7271  -0.7861
C       2.0940  -1.8568  -0.0869
C       -2.5049  -1.2640  -0.4406
C       -2.3892  -1.1698  1.0517
N       1.5293  0.0692  -1.3349
N       1.1039  -1.4733  0.8021
N       -1.1310  -1.3056  -0.9995
N       -1.5141  -0.0109  1.3410
H       2.9057  -2.3856  0.3863
H       1.6665  -2.5335  -0.8128
H       -2.9833  -0.3835  -0.8259
H       -3.0726  -2.1258  -0.7491
H       1.8028  1.0299  -1.4402
H       1.2730  -0.2505  -2.2475
H       -1.9996  0.8601  1.2268
H       -1.1719  -0.0207  2.2775
H       -1.9365  -2.0570  1.4829
H       -3.3698  -1.0545  1.4974
H       0.5857  -2.2784  1.0930
H       1.5012  -1.0664  1.6276
H       3.2220  -1.1531  -1.5832
H       3.2521  -0.0978  -0.1801
H       -0.7730  -2.2394  -0.9436
H       -1.1646  -1.0481  -1.9693
