27

Co      -0.0194  0.0034  0.0170
Cl      -1.0943  1.6290  -1.2326
Cl      1.1686  1.4643  1.3723
C       2.6877  -0.7266  -0.8031
C       2.1449  -1.9305  -0.1214
C       -2.5731  -1.3451  -0.4350
C       -2.4484  -1.1576  1.0326
N       1.5395  0.0382  -1.3558
N       1.0804  -1.5092  0.8421
N       -1.1610  -1.2660  -0.9366
N       -1.4217  -0.1136  1.2691
H       2.8300  -2.4553  0.5493
H       1.7951  -2.6443  -0.8662
H       -3.2386  -0.5824  -0.8312
H       -2.8945  -2.3366  -0.8103
H       1.6893  1.0335  -1.3528
H       1.0836  -0.2118  -2.2272
H       -1.7641  0.8328  1.1772
H       -0.9686  -0.1636  2.1636
H       -2.1595  -2.1139  1.4616
H       -3.3479  -0.8115  1.5456
H       0.4967  -2.2825  1.0967
H       1.3591  -0.9878  1.6731
H       3.2637  -0.9095  -1.7112
H       3.3035  -0.1702  -0.1131
H       -0.6289  -2.1314  -0.8838
H       -1.1151  -0.9108  -1.8729
