27

Co      0.0166  0.0092  -0.0315
Cl      -1.1194  1.6418  -1.2313
Cl      1.1874  1.4733  1.3921
C       2.6944  -0.7379  -0.8042
C       2.1808  -1.9850  -0.1112
C       -2.5955  -1.3239  -0.4218
C       -2.4980  -1.2111  1.0822
N       1.5266  0.0544  -1.3042
N       1.1593  -1.5169  0.8750
N       -1.1893  -1.2744  -0.9730
N       -1.5548  -0.0817  1.3143
H       2.9866  -2.5179  0.3785
H       1.7138  -2.6631  -0.8093
H       -3.1273  -0.4761  -0.8266
H       -3.0842  -2.2300  -0.7496
H       1.7779  1.0296  -1.3652
H       1.2707  -0.2202  -2.2292
H       -2.0223  0.7982  1.1694
H       -1.2122  -0.0639  2.2613
H       -2.0989  -2.1100  1.5320
H       -3.4641  -1.0207  1.5255
H       0.6608  -2.2953  1.2723
H       1.6150  -1.0324  1.6313
H       3.3724  -0.9770  -1.6097
H       3.2218  -0.1169  -0.0973
H       -0.8039  -2.2035  -0.9681
H       -1.2489  -0.9818  -1.9317
