27

Co      0.0675  -0.0166  0.0075
Cl      -1.0691  1.5862  -1.2070
Cl      1.1102  1.3781  1.3183
C       2.5790  -0.6567  -0.7986
C       2.0489  -1.8920  -0.0922
C       -2.4659  -1.3050  -0.4434
C       -2.4012  -1.1100  1.0699
N       1.4100  0.0899  -1.2936
N       1.0110  -1.4160  0.8600
N       -1.0996  -1.3219  -1.0858
N       -1.4397  -0.0304  1.3812
H       2.8243  -2.4281  0.4160
H       1.5759  -2.5669  -0.7941
H       -2.9906  -0.4774  -0.8789
H       -3.0066  -2.2070  -0.6749
H       1.6127  1.0603  -1.4396
H       1.0846  -0.2673  -2.1796
H       -1.8557  0.8793  1.2593
H       -1.1227  -0.0642  2.3271
H       -2.0733  -2.0108  1.5704
H       -3.3928  -0.8804  1.4386
H       0.4285  -2.1722  1.1625
H       1.4463  -1.0275  1.6739
H       3.2462  -0.9137  -1.6048
H       3.1063  -0.0262  -0.1088
H       -0.7847  -2.2658  -1.2186
H       -1.2004  -0.8980  -1.9982
