27

Co      0.0110  0.0646  0.0136
Cl      -1.0630  1.5764  -1.2110
Cl      1.0851  1.3233  1.2783
C       2.5935  -0.6768  -0.8599
C       2.0866  -1.8930  -0.1067
C       -2.4295  -1.2919  -0.4407
C       -2.3884  -1.0791  1.0541
N       1.4883  0.0821  -1.2977
N       1.0418  -1.5232  0.9477
N       -1.0715  -1.3103  -1.0801
N       -1.4401  -0.0523  1.4209
H       3.0602  -2.3018  0.2341
H       1.5685  -2.6492  -0.6878
H       -2.9446  -0.5347  -1.0374
H       -3.0143  -2.2365  -0.4433
H       1.8085  1.0244  -1.4928
H       1.3424  -0.2824  -2.2374
H       -1.9399  0.8317  1.4603
H       -1.1583  -0.2063  2.3775
H       -2.0057  -1.9702  1.5359
H       -3.4212  -0.9640  1.3839
H       0.6239  -2.3895  1.2667
H       1.6345  -1.2830  1.7572
H       3.4339  -1.0252  -1.5024
H       3.0025  -0.0062  -0.1117
H       -0.8581  -2.2945  -1.1694
H       -1.2371  -1.0186  -2.0328
