27

Co      0.0287  0.0597  -0.0076
Cl      -1.0402  1.5366  -1.1820
Cl      1.1029  1.3496  1.3030
C       2.5715  -0.6793  -0.8146
C       2.0749  -1.8934  -0.1378
C       -2.4491  -1.2874  -0.4254
C       -2.3902  -1.0832  1.0451
N       1.4457  0.0397  -1.2456
N       1.0392  -1.4388  0.8746
N       -1.0989  -1.3244  -1.0867
N       -1.4469  -0.0638  1.3952
H       2.9231  -2.2904  0.4019
H       1.6588  -2.6826  -0.7546
H       -3.0423  -0.5401  -0.9362
H       -2.9385  -2.2519  -0.5436
H       1.6853  1.0003  -1.4123
H       1.0808  -0.3117  -2.1216
H       -1.8647  0.8520  1.3470
H       -1.1084  -0.1652  2.3282
H       -2.0538  -2.0115  1.4856
H       -3.3823  -0.8968  1.4282
H       0.5237  -2.2302  1.2026
H       1.5020  -1.0397  1.6668
H       3.3294  -0.8387  -1.5848
H       3.0204  -0.0902  -0.0219
H       -0.7806  -2.2663  -1.1653
H       -1.2228  -0.9636  -2.0176
