27

Co      -0.0403  -0.0202  -0.0524
Cl      -1.0892  1.6275  -1.2238
Cl      1.1921  1.5039  1.4046
C       2.6817  -0.7455  -0.8357
C       2.1911  -1.9758  -0.0889
C       -2.4885  -1.2973  -0.4158
C       -2.4809  -1.1838  1.0995
N       1.5156  0.0671  -1.3138
N       1.0541  -1.5510  0.8027
N       -1.0813  -1.2526  -0.9484
N       -1.5301  -0.0738  1.3822
H       2.9987  -2.4004  0.5060
H       1.8360  -2.7433  -0.7646
H       -2.9993  -0.4499  -0.8388
H       -2.9764  -2.1996  -0.7652
H       1.7591  1.0477  -1.2866
H       1.2898  -0.1310  -2.2748
H       -1.9760  0.8176  1.2963
H       -1.1482  -0.1068  2.3117
H       -2.1338  -2.0820  1.5899
H       -3.4750  -0.9699  1.4655
H       0.5478  -2.3555  1.1202
H       1.4330  -1.1005  1.6214
H       3.3141  -1.0224  -1.6597
H       3.2487  -0.1161  -0.1722
H       -0.6683  -2.1696  -0.9084
H       -1.1378  -0.9937  -1.9183
