27

Co      -0.0699  0.0172  -0.0051
Cl      -1.0962  1.6413  -1.2246
Cl      1.1957  1.4980  1.4008
C       2.7977  -0.7195  -0.8286
C       2.2287  -2.0712  -0.0968
C       -2.5902  -1.3370  -0.4866
C       -2.4377  -1.2142  1.0603
N       1.4838  0.0559  -1.3455
N       1.0497  -1.5265  0.8139
N       -1.1269  -1.2907  -0.8944
N       -1.4225  -0.0643  1.2700
H       2.9073  -2.7010  0.4940
H       1.7695  -2.6907  -0.8660
H       -3.0491  -0.4362  -0.8790
H       -3.1023  -2.2060  -0.8958
H       1.6617  1.0466  -1.4260
H       1.2439  -0.2557  -2.2665
H       -1.8988  0.8233  1.2383
H       -0.9964  -0.0999  2.1834
H       -2.0277  -2.1111  1.5098
H       -3.3530  -0.9728  1.5845
H       0.4967  -2.2756  1.1923
H       1.4782  -1.0689  1.6021
H       3.4383  -0.9088  -1.6813
H       3.3086  -0.0461  -0.1518
H       -0.6709  -2.1935  -0.6913
H       -1.0594  -1.1426  -1.9018
