27

Co      0.0000  0.0000  0.0000
Cl      -1.0884  1.6120  -1.2155
Cl      1.1572  1.4393  1.3605
C       2.6613  -0.7151  -0.7983
C       2.1302  -1.9259  -0.1186
C       -2.5275  -1.2985  -0.4308
C       -2.4157  -1.1551  1.0514
N       1.5165  0.0603  -1.3365
N       1.0923  -1.4985  0.8645
N       -1.1499  -1.3358  -1.0252
N       -1.4879  -0.0453  1.3476
H       2.8255  -2.4547  0.5273
H       1.7587  -2.6287  -0.8585
H       -3.1174  -0.4679  -0.7821
H       -2.9641  -2.2176  -0.8130
H       1.6705  1.0535  -1.3358
H       1.0465  -0.1879  -2.2063
H       -1.8603  0.8795  1.2059
H       -1.0587  -0.0621  2.2526
H       -2.0620  -2.0909  1.4605
H       -3.3512  -0.9150  1.5330
H       0.4979  -2.2599  1.1305
H       1.3769  -0.9662  1.6846
H       3.2319  -0.8821  -1.7138
H       3.2778  -0.1638  -0.1039
H       -0.6767  -2.2242  -1.0101
H       -1.1409  -0.9540  -1.9527
