27

Co      -0.0658  -0.0208  -0.0054
Cl      -1.0978  1.6491  -1.2400
Cl      1.1938  1.4965  1.3997
C       2.6736  -0.7266  -0.7971
C       2.1597  -1.9489  -0.1187
C       -2.5329  -1.3411  -0.4382
C       -2.4175  -1.1287  1.0369
N       1.5341  0.0566  -1.3535
N       1.1249  -1.5723  0.9000
N       -1.1536  -1.3074  -1.0175
N       -1.4170  -0.0749  1.3211
H       2.8806  -2.4783  0.4963
H       1.7868  -2.6474  -0.8603
H       -3.1910  -0.5733  -0.8390
H       -2.8986  -2.3188  -0.7751
H       1.6839  1.0569  -1.2834
H       1.1125  -0.1406  -2.2522
H       -1.7552  0.8785  1.2925
H       -0.9155  -0.1798  2.1975
H       -2.1255  -2.0739  1.4790
H       -3.3377  -0.8069  1.5130
H       0.6025  -2.3660  1.1992
H       1.4154  -0.9980  1.6996
H       3.2522  -0.9002  -1.7049
H       3.2871  -0.1728  -0.1041
H       -0.6300  -2.1778  -0.9919
H       -1.1393  -0.9302  -1.9442
