27

Co      -0.0715  -0.0677  -0.0136
Cl      -1.0884  1.6117  -1.2123
Cl      1.2218  1.5358  1.4299
C       2.7170  -0.7386  -0.8161
C       2.1601  -1.9253  -0.1220
C       -2.5831  -1.3335  -0.4272
C       -2.4358  -1.1510  1.0423
N       1.5656  0.0517  -1.3380
N       1.1055  -1.4736  0.8421
N       -1.1922  -1.2318  -0.9836
N       -1.4437  -0.0769  1.2455
H       2.8358  -2.4592  0.5604
H       1.7941  -2.6398  -0.8541
H       -3.2757  -0.5760  -0.8037
H       -2.8973  -2.3321  -0.7977
H       1.7010  1.0637  -1.2004
H       1.1682  -0.0910  -2.2586
H       -1.7898  0.8628  1.1006
H       -0.9871  -0.0701  2.1424
H       -2.1051  -2.0888  1.4674
H       -3.3344  -0.8358  1.5669
H       0.5945  -2.2464  1.2089
H       1.4014  -0.8351  1.6052
H       3.2637  -0.9324  -1.7428
H       3.3636  -0.1927  -0.1400
H       -0.6627  -2.1031  -1.0120
H       -1.1776  -0.8046  -1.8961
