27

Co      0.0505  -0.0187  0.0221
Cl      -1.0918  1.6007  -1.2074
Cl      1.1265  1.3874  1.3290
C       2.5810  -0.6925  -0.7639
C       2.0426  -1.8339  -0.0913
C       -2.5304  -1.2927  -0.4423
C       -2.3913  -1.1494  1.0462
N       1.4982  0.0795  -1.3391
N       1.1226  -1.4450  0.8650
N       -1.1649  -1.3066  -1.0400
N       -1.4767  -0.0223  1.3048
H       2.8546  -2.4329  0.3056
H       1.5374  -2.4492  -0.8330
H       -3.0479  -0.4412  -0.8394
H       -3.0768  -2.1801  -0.7085
H       1.7466  1.0438  -1.4681
H       1.2329  -0.2724  -2.2385
H       -1.9318  0.8642  1.1496
H       -1.1648  -0.0102  2.2535
H       -1.9755  -2.0402  1.4998
H       -3.3622  -0.9822  1.4919
H       0.6080  -2.2379  1.1873
H       1.5609  -1.0274  1.6620
H       3.2157  -1.1081  -1.5417
H       3.1863  -0.0629  -0.1381
H       -0.8382  -2.2501  -1.0980
H       -1.2246  -0.9444  -1.9740
