27

Co      0.0556  0.0532  0.0387
Cl      -1.0610  1.5500  -1.1875
Cl      1.1061  1.3626  1.2950
C       2.6350  -0.7076  -0.9010
C       2.1159  -1.8763  -0.1011
C       -2.5156  -1.2896  -0.4456
C       -2.3821  -1.1078  1.0405
N       1.4869  0.0664  -1.2081
N       0.9755  -1.4076  0.8098
N       -1.1619  -1.3804  -1.0980
N       -1.4653  -0.0411  1.3502
H       3.0312  -2.2141  0.4010
H       1.6796  -2.7165  -0.6539
H       -2.9934  -0.4996  -1.0110
H       -3.1594  -2.2046  -0.4427
H       1.8115  1.0098  -1.4156
H       1.2704  -0.2812  -2.1297
H       -1.9866  0.8171  1.2514
H       -1.2701  -0.0773  2.3432
H       -1.9271  -1.9893  1.4769
H       -3.3843  -1.0357  1.4505
H       0.4671  -2.2383  1.0718
H       1.5256  -1.2151  1.6651
H       3.3753  -1.0676  -1.6176
H       3.1367  -0.0504  -0.2050
H       -1.0071  -2.3881  -1.2134
H       -1.3201  -1.0728  -2.0500
