27

Co      0.0144  -0.0209  -0.0504
Cl      -1.1120  1.6373  -1.2142
Cl      1.2275  1.5493  1.4434
C       2.7412  -0.7122  -0.8337
C       2.2183  -2.0745  -0.0709
C       -2.6427  -1.3409  -0.4612
C       -2.4795  -1.2389  1.0941
N       1.4498  0.1166  -1.3169
N       1.0804  -1.5366  0.8786
N       -1.2124  -1.3367  -0.9924
N       -1.5168  -0.0383  1.2812
H       2.9436  -2.6744  0.4785
H       1.7362  -2.7091  -0.8099
H       -3.0831  -0.4023  -0.8054
H       -3.2176  -2.1726  -0.8752
H       1.6528  1.1089  -1.3318
H       1.1998  -0.1266  -2.2543
H       -2.0041  0.8298  1.1167
H       -1.1496  0.0243  2.2225
H       -2.0406  -2.1132  1.5515
H       -3.4170  -1.0369  1.5931
H       0.5023  -2.2693  1.2589
H       1.5086  -1.0595  1.6555
H       3.3549  -0.8960  -1.7085
H       3.2835  -0.0503  -0.1686
H       -0.8239  -2.2674  -0.9394
H       -1.2282  -1.0772  -1.9661
