27

Co      -0.0427  -0.0251  -0.0475
Cl      -1.0868  1.6250  -1.2213
Cl      1.1897  1.5014  1.3997
C       2.6817  -0.7480  -0.8284
C       2.1960  -1.9807  -0.0939
C       -2.5032  -1.2973  -0.4182
C       -2.4760  -1.1863  1.0897
N       1.4935  0.0500  -1.2746
N       1.0443  -1.5141  0.7610
N       -1.0764  -1.2158  -0.8993
N       -1.4958  -0.0934  1.3257
H       2.9864  -2.3931  0.5403
H       1.8606  -2.7654  -0.7670
H       -3.0312  -0.4646  -0.8461
H       -2.9518  -2.2193  -0.7799
H       1.7297  1.0329  -1.2522
H       1.2603  -0.1482  -2.2331
H       -1.9367  0.8004  1.2203
H       -1.1212  -0.0995  2.2577
H       -2.1338  -2.0918  1.5727
H       -3.4480  -0.9429  1.4900
H       0.5380  -2.3040  1.1129
H       1.4305  -1.0416  1.5649
H       3.3043  -0.9979  -1.6695
H       3.2487  -0.1234  -0.1600
H       -0.6462  -2.1255  -0.8249
H       -1.1108  -0.9839  -1.8791
