27

Co      0.0028  -0.0107  0.0159
Cl      -1.0801  1.6143  -1.2281
Cl      1.1022  1.3577  1.3014
C       2.5514  -0.6916  -0.7729
C       2.0545  -1.8444  -0.0708
C       -2.4122  -1.2946  -0.4412
C       -2.3754  -1.0942  1.0611
N       1.4851  0.1047  -1.3508
N       1.1079  -1.5308  0.8947
N       -1.0704  -1.3074  -1.0888
N       -1.4444  -0.0043  1.4308
H       2.9061  -2.3915  0.3139
H       1.5819  -2.4886  -0.7988
H       -2.9412  -0.4711  -0.8799
H       -2.9583  -2.1949  -0.6675
H       1.7412  1.0655  -1.4341
H       1.2358  -0.2072  -2.2717
H       -1.8674  0.9094  1.4269
H       -1.0593  -0.1373  2.3470
H       -2.0462  -1.9863  1.5818
H       -3.3933  -0.8889  1.3870
H       0.6135  -2.3569  1.1665
H       1.5154  -1.1358  1.7235
H       3.1694  -1.1278  -1.5558
H       3.1753  -0.0607  -0.1691
H       -0.7178  -2.2376  -1.1696
H       -1.1636  -0.9234  -2.0118
