27

Co      0.0080  -0.0651  -0.0525
Cl      -1.1079  1.6263  -1.1989
Cl      1.2178  1.5349  1.4351
C       2.7457  -0.6962  -0.8422
C       2.1862  -2.0387  -0.0723
C       -2.6034  -1.2823  -0.4562
C       -2.4448  -1.2453  1.1054
N       1.4641  0.1318  -1.3416
N       1.0522  -1.4959  0.8790
N       -1.1717  -1.3161  -0.9811
N       -1.5491  0.0049  1.2836
H       2.8909  -2.6646  0.4766
H       1.6852  -2.6565  -0.8176
H       -2.9964  -0.2969  -0.7599
H       -3.2165  -2.0742  -0.9207
H       1.6425  1.1332  -1.3074
H       1.2422  -0.0827  -2.2972
H       -2.0594  0.8521  1.0204
H       -1.2198  0.1583  2.2410
H       -1.9365  -2.1069  1.5296
H       -3.3895  -1.1206  1.6208
H       0.4895  -2.2286  1.2824
H       1.4824  -0.9971  1.6427
H       3.3580  -0.9088  -1.7071
H       3.2914  -0.0328  -0.1840
H       -0.8075  -2.2573  -0.9313
H       -1.1729  -1.0472  -1.9525
