27

Co      -0.0082  -0.0661  -0.0068
Cl      -1.1055  1.6498  -1.2326
Cl      1.1743  1.4738  1.3837
C       2.7180  -0.6780  -0.8644
C       2.1434  -1.9774  -0.1154
C       -2.5108  -1.2925  -0.4433
C       -2.4166  -1.1468  1.0805
N       1.4817  0.0849  -1.3174
N       1.0072  -1.4648  0.9002
N       -1.1099  -1.3090  -1.0306
N       -1.4669  -0.0367  1.3384
H       2.8833  -2.5140  0.4577
H       1.6637  -2.6714  -0.7941
H       -3.0197  -0.4470  -0.8743
H       -3.0361  -2.1929  -0.7228
H       1.6367  1.0833  -1.3159
H       1.2071  -0.1541  -2.2533
H       -1.9032  0.8578  1.1611
H       -1.1428  0.0033  2.2914
H       -2.0198  -2.0460  1.5251
H       -3.3776  -0.9589  1.5237
H       0.4880  -2.2369  1.2732
H       1.4623  -1.0123  1.6743
H       3.4173  -0.8416  -1.6797
H       3.1935  -0.0490  -0.1249
H       -0.7728  -2.2533  -1.1048
H       -1.1618  -0.9298  -1.9589
