27

Co      -0.0584  -0.0573  -0.0516
Cl      -1.1021  1.6316  -1.2081
Cl      1.2391  1.5657  1.4547
C       2.7069  -0.7440  -0.8255
C       2.1892  -1.9717  -0.1068
C       -2.5982  -1.2962  -0.4297
C       -2.4513  -1.2125  1.0645
N       1.5350  0.0577  -1.3164
N       1.0986  -1.5280  0.8280
N       -1.1685  -1.2345  -0.8974
N       -1.4942  -0.0823  1.2130
H       2.9856  -2.4598  0.4499
H       1.7835  -2.6976  -0.7977
H       -3.1268  -0.4473  -0.8329
H       -3.0599  -2.2109  -0.7905
H       1.7612  1.0516  -1.2460
H       1.3446  -0.1155  -2.2903
H       -1.9631  0.7938  1.0388
H       -1.1300  -0.0055  2.1520
H       -2.0097  -2.1105  1.4790
H       -3.3775  -1.0218  1.5865
H       0.6553  -2.3317  1.2460
H       1.5226  -1.0015  1.5833
H       3.3584  -1.0124  -1.6394
H       3.2579  -0.1162  -0.1442
H       -0.7531  -2.1554  -0.7935
H       -1.1693  -1.0243  -1.8859
