27

Co      -0.0013  0.0239  0.0163
Cl      -1.0647  1.5859  -1.2093
Cl      1.0939  1.3524  1.2888
C       2.6383  -0.6913  -0.8587
C       2.1169  -1.9195  -0.0617
C       -2.4356  -1.2809  -0.4594
C       -2.3924  -1.1289  1.0746
N       1.4615  0.1047  -1.3023
N       0.9850  -1.4918  0.8285
N       -1.0334  -1.2701  -0.9897
N       -1.4359  -0.0272  1.3867
H       3.0002  -2.3848  0.3633
H       1.6392  -2.6399  -0.7095
H       -2.8602  -0.4291  -0.9740
H       -3.0536  -2.1570  -0.6299
H       1.7626  1.0558  -1.4578
H       1.3568  -0.2331  -2.2627
H       -1.9596  0.8377  1.3737
H       -1.1528  -0.1084  2.3464
H       -1.9863  -1.9961  1.5867
H       -3.4122  -0.9929  1.4243
H       0.4967  -2.3204  1.1249
H       1.5166  -1.2510  1.6735
H       3.3473  -1.1206  -1.5737
H       3.1541  0.0155  -0.2284
H       -0.7751  -2.2391  -0.9849
H       -1.1277  -1.0468  -1.9694
