27

Co      -0.0280  -0.0557  -0.0074
Cl      -1.1048  1.6535  -1.2231
Cl      1.2233  1.5578  1.4458
C       2.7773  -0.6909  -0.8363
C       2.1708  -2.0238  -0.0946
C       -2.6121  -1.3372  -0.4809
C       -2.4436  -1.2191  1.0670
N       1.4769  0.0710  -1.3869
N       0.9878  -1.4834  0.8165
N       -1.1523  -1.3058  -0.9107
N       -1.4271  -0.0660  1.2322
H       2.8292  -2.6796  0.4981
H       1.6935  -2.6251  -0.8730
H       -3.0606  -0.4229  -0.8569
H       -3.1417  -2.1955  -0.8971
H       1.6215  1.0715  -1.4437
H       1.2495  -0.2364  -2.3117
H       -1.8883  0.8190  1.0867
H       -1.0579  -0.0125  2.1702
H       -2.0307  -2.1104  1.5198
H       -3.3522  -0.9698  1.5993
H       0.4103  -2.2280  1.1628
H       1.4040  -1.0483  1.6216
H       3.4298  -0.9141  -1.6658
H       3.2808  -0.0052  -0.1660
H       -0.7429  -2.2272  -0.7977
H       -1.0963  -1.0817  -1.8946
