27

Co      -0.0505  0.0255  -0.0255
Cl      -1.0987  1.6437  -1.2271
Cl      1.1982  1.4981  1.4057
C       2.7633  -0.7298  -0.8280
C       2.2189  -2.0407  -0.1551
C       -2.5417  -1.2963  -0.4364
C       -2.4411  -1.1883  1.0622
N       1.5236  0.0160  -1.3248
N       1.0736  -1.5360  0.8539
N       -1.1326  -1.3742  -0.9820
N       -1.5129  -0.0684  1.3676
H       2.8746  -2.5484  0.5831
H       1.8707  -2.7705  -0.8798
H       -3.0869  -0.4365  -0.7950
H       -2.9970  -2.1947  -0.8554
H       1.6454  1.0199  -1.3299
H       1.0461  -0.2322  -2.1932
H       -1.9036  0.8494  1.2539
H       -1.0538  -0.0935  2.2675
H       -2.0654  -2.1327  1.4346
H       -3.3661  -0.9730  1.5687
H       0.4810  -2.2828  1.1659
H       1.3758  -0.9786  1.6525
H       3.4062  -0.7205  -1.7461
H       3.2659  -0.1728  -0.0387
H       -0.6367  -2.2597  -0.8480
H       -1.0866  -1.1025  -1.9462
