27

Co      0.0012  0.0411  0.0108
Cl      -1.0892  1.6284  -1.2346
Cl      1.1205  1.3867  1.3241
C       2.6126  -0.7269  -0.7755
C       2.1004  -1.8781  -0.0906
C       -2.4433  -1.2964  -0.4354
C       -2.4308  -1.1538  1.0688
N       1.5342  0.0504  -1.3807
N       1.1008  -1.5535  0.8216
N       -1.0740  -1.3384  -1.0109
N       -1.5143  -0.0436  1.4523
H       2.9313  -2.4060  0.3536
H       1.6806  -2.5388  -0.8323
H       -2.9177  -0.4312  -0.8603
H       -3.0116  -2.1644  -0.7275
H       1.8087  1.0029  -1.5434
H       1.2764  -0.3228  -2.2784
H       -1.9646  0.8535  1.4560
H       -1.1315  -0.1800  2.3733
H       -2.0865  -2.0526  1.5672
H       -3.4513  -0.9757  1.3989
H       0.5643  -2.3796  1.0344
H       1.4779  -1.2114  1.6925
H       3.2582  -1.1503  -1.5383
H       3.2057  -0.0827  -0.1540
H       -0.7017  -2.2651  -0.9655
H       -1.1265  -1.0768  -1.9761
