27

Co      0.0205  -0.0103  -0.0052
Cl      -1.0747  1.5879  -1.2156
Cl      1.1399  1.4091  1.3398
C       2.6401  -0.6968  -0.8344
C       2.1244  -1.9403  -0.0737
C       -2.4934  -1.3499  -0.4474
C       -2.4484  -1.1103  1.0875
N       1.4359  0.0877  -1.2321
N       1.0525  -1.4158  0.8301
N       -1.1271  -1.2589  -1.0986
N       -1.4485  -0.0426  1.3855
H       2.9947  -2.4433  0.3394
H       1.5935  -2.6314  -0.7148
H       -3.0122  -0.5603  -0.9787
H       -3.0634  -2.2790  -0.5429
H       1.7338  1.0421  -1.3892
H       1.3229  -0.2472  -2.1896
H       -1.9336  0.8440  1.3668
H       -1.1708  -0.1381  2.3509
H       -2.1147  -1.9721  1.6641
H       -3.4771  -0.8967  1.3844
H       0.5832  -2.2013  1.2561
H       1.6379  -1.0671  1.5902
H       3.3515  -1.0622  -1.5694
H       3.1444  -0.0054  -0.1773
H       -0.8828  -2.2350  -1.3012
H       -1.3194  -0.8634  -2.0191
