27

Co      0.0004  -0.0147  0.0204
Cl      -1.1003  1.6264  -1.2261
Cl      1.1160  1.3621  1.3072
C       2.6031  -0.7071  -0.7819
C       2.0905  -1.8750  -0.0759
C       -2.4831  -1.2866  -0.4547
C       -2.3806  -1.1361  1.0600
N       1.4847  0.0803  -1.2785
N       1.1456  -1.4660  0.8518
N       -1.1082  -1.2618  -1.0262
N       -1.4569  -0.0089  1.3305
H       3.0050  -2.4501  0.1973
H       1.5213  -2.4910  -0.7701
H       -2.9301  -0.4307  -0.9365
H       -3.1093  -2.1601  -0.6141
H       1.8108  1.0284  -1.4421
H       1.4284  -0.2751  -2.2433
H       -1.9910  0.8497  1.2766
H       -1.1845  -0.0523  2.2968
H       -1.9331  -1.9902  1.5660
H       -3.3953  -1.0262  1.4360
H       0.7480  -2.2943  1.2873
H       1.7379  -1.1085  1.6034
H       3.3027  -1.2126  -1.4768
H       3.1558  -0.0121  -0.1737
H       -0.8651  -2.2398  -1.0689
H       -1.2230  -0.9956  -1.9902
