27

Co      0.0757  0.0524  0.0114
Cl      -1.0520  1.5483  -1.1899
Cl      1.0931  1.3437  1.2951
C       2.5863  -0.6616  -0.8183
C       2.0679  -1.9164  -0.0735
C       -2.4913  -1.3291  -0.4639
C       -2.4151  -1.1184  1.0675
N       1.3940  0.0921  -1.2674
N       1.0045  -1.4199  0.8434
N       -1.1127  -1.3152  -1.0743
N       -1.4277  -0.0420  1.3752
H       2.9426  -2.4323  0.3115
H       1.5318  -2.5907  -0.7319
H       -2.9518  -0.5012  -0.9855
H       -3.1161  -2.2193  -0.5684
H       1.6975  1.0325  -1.5568
H       1.2283  -0.3564  -2.1750
H       -1.9341  0.8347  1.3564
H       -1.1686  -0.1366  2.3422
H       -2.0491  -1.9889  1.6032
H       -3.4331  -0.9391  1.4070
H       0.4656  -2.1997  1.1737
H       1.5794  -1.1757  1.6586
H       3.3402  -1.0217  -1.5219
H       3.0466  0.0454  -0.1407
H       -0.8945  -2.2969  -1.1776
H       -1.2649  -1.0076  -2.0254
