27

Co      0.0245  0.0799  -0.0021
Cl      -1.0850  1.6200  -1.2304
Cl      1.1163  1.3737  1.3157
C       2.6412  -0.7063  -0.8181
C       2.1504  -1.9809  -0.0876
C       -2.4603  -1.3175  -0.4581
C       -2.4382  -1.1475  1.0842
N       1.4423  0.0579  -1.2747
N       1.0621  -1.5261  0.8344
N       -1.0810  -1.3767  -1.0601
N       -1.4944  -0.0410  1.4659
H       3.0480  -2.4714  0.2983
H       1.6487  -2.6642  -0.7517
H       -2.8512  -0.4397  -0.9722
H       -3.1486  -2.1601  -0.6025
H       1.7675  0.9950  -1.5593
H       1.2994  -0.3790  -2.1925
H       -2.0240  0.8262  1.5210
H       -1.1909  -0.1987  2.4212
H       -2.0586  -2.0151  1.6138
H       -3.4856  -1.0213  1.3786
H       0.5502  -2.3325  1.1505
H       1.6199  -1.2832  1.6620
H       3.4065  -1.0442  -1.5168
H       3.0872  0.0036  -0.1291
H       -0.8452  -2.3567  -1.0520
H       -1.2162  -1.1757  -2.0455
