27

Co      -0.0273  0.0126  -0.0608
Cl      -1.0874  1.5927  -1.1970
Cl      1.2174  1.5103  1.4295
C       2.7714  -0.7119  -0.8069
C       2.2137  -2.0834  -0.0944
C       -2.6172  -1.3542  -0.4595
C       -2.4983  -1.2244  1.0996
N       1.4739  0.0853  -1.3336
N       1.1316  -1.4949  0.8856
N       -1.1924  -1.2658  -1.0009
N       -1.5262  -0.0409  1.3244
H       2.9177  -2.7531  0.4193
H       1.6764  -2.6605  -0.8526
H       -3.1164  -0.4566  -0.8198
H       -3.1294  -2.2232  -0.8598
H       1.6741  1.0740  -1.3949
H       1.2469  -0.2096  -2.2632
H       -2.0091  0.8396  1.2430
H       -1.1147  -0.0492  2.2465
H       -2.0926  -2.1020  1.5836
H       -3.4526  -1.0043  1.5567
H       0.5989  -2.2119  1.3744
H       1.6097  -0.9377  1.5931
H       3.4382  -0.8640  -1.6521
H       3.2584  -0.0502  -0.0987
H       -0.7587  -2.1797  -0.9739
H       -1.2311  -0.9779  -1.9614
