27

Co      -0.0007  -0.0003  0.0090
Cl      -1.0938  1.6383  -1.2280
Cl      1.1195  1.3856  1.3221
C       2.5766  -0.7011  -0.7927
C       2.0836  -1.8741  -0.0660
C       -2.4294  -1.2656  -0.4583
C       -2.3660  -1.1391  1.0668
N       1.4773  0.0900  -1.3313
N       1.0845  -1.5498  0.8495
N       -1.0611  -1.3516  -1.0358
N       -1.4722  0.0027  1.4045
H       3.0227  -2.4005  0.2179
H       1.5672  -2.5174  -0.7632
H       -2.7922  -0.3570  -0.9361
H       -3.1458  -2.0820  -0.6334
H       1.8097  1.0326  -1.5150
H       1.4184  -0.2835  -2.2910
H       -2.0137  0.8569  1.3942
H       -1.1814  -0.0852  2.3628
H       -1.9177  -1.9914  1.5707
H       -3.4053  -1.0666  1.4025
H       0.6474  -2.4068  1.1537
H       1.6179  -1.2898  1.6828
H       3.2890  -1.2306  -1.4649
H       3.1173  0.0137  -0.1940
H       -0.8392  -2.3375  -1.0009
H       -1.1615  -1.1638  -2.0265
