27

Co      -0.0138  -0.0038  0.0436
Cl      -1.0938  1.6390  -1.2357
Cl      1.1125  1.3625  1.3110
C       2.6038  -0.6923  -0.7559
C       2.0511  -1.8415  -0.1085
C       -2.4314  -1.2858  -0.4592
C       -2.3471  -1.1050  1.0411
N       1.5148  0.0497  -1.3666
N       1.1255  -1.4887  0.8670
N       -1.0917  -1.3763  -1.0980
N       -1.4490  0.0081  1.4233
H       2.8558  -2.4717  0.2668
H       1.5367  -2.4219  -0.8744
H       -2.9138  -0.4274  -0.8863
H       -3.0380  -2.1519  -0.6782
H       1.7461  1.0105  -1.5412
H       1.2557  -0.3515  -2.2559
H       -1.8918  0.9122  1.4115
H       -1.0762  -0.1155  2.3464
H       -1.9617  -1.9971  1.5179
H       -3.3519  -0.9560  1.4136
H       0.6345  -2.3045  1.1681
H       1.5618  -1.0926  1.6774
H       3.2662  -1.1061  -1.5101
H       3.1785  -0.0525  -0.1179
H       -0.7660  -2.3195  -1.1269
H       -1.1493  -1.0332  -2.0332
