27

Co      -0.0060  0.0069  0.0014
Cl      -1.0943  1.6325  -1.2291
Cl      1.1756  1.4829  1.3793
C       2.6815  -0.7490  -0.8154
C       2.1826  -1.9545  -0.1123
C       -2.5561  -1.3193  -0.4277
C       -2.4476  -1.1751  1.0471
N       1.5091  0.0342  -1.2895
N       1.0503  -1.5078  0.7684
N       -1.1491  -1.3228  -0.9461
N       -1.4648  -0.0969  1.3044
H       2.8684  -2.3899  0.6483
H       1.9138  -2.7423  -0.8322
H       -3.1532  -0.5046  -0.7978
H       -2.9510  -2.2599  -0.8334
H       1.6752  1.0270  -1.2783
H       1.0219  -0.1860  -2.1618
H       -1.8247  0.8331  1.1721
H       -1.0332  -0.1151  2.2097
H       -2.1334  -2.1231  1.4662
H       -3.3630  -0.8737  1.5424
H       0.4202  -2.2684  0.9821
H       1.2884  -1.0100  1.6338
H       3.2059  -0.9044  -1.7698
H       3.3344  -0.1998  -0.1448
H       -0.6435  -2.1990  -0.8573
H       -1.1103  -1.0123  -1.8996
