27

Co      0.0194  -0.0063  -0.0141
Cl      -1.0825  1.5949  -1.1985
Cl      1.1457  1.4143  1.3487
C       2.5846  -0.7222  -0.7758
C       2.0970  -1.8726  -0.0831
C       -2.4732  -1.2610  -0.4345
C       -2.3817  -1.1527  1.0706
N       1.4898  0.0828  -1.2945
N       1.1278  -1.4902  0.8271
N       -1.1384  -1.3845  -1.1064
N       -1.5464  0.0258  1.4142
H       2.9308  -2.3905  0.3664
H       1.6570  -2.5467  -0.8005
H       -2.9150  -0.3506  -0.8065
H       -3.1246  -2.0837  -0.7130
H       1.7639  1.0442  -1.3848
H       1.2222  -0.2177  -2.2108
H       -2.0257  0.8974  1.2911
H       -1.2095  0.0055  2.3555
H       -1.9357  -2.0258  1.5255
H       -3.3965  -1.0654  1.4523
H       0.6080  -2.2871  1.1330
H       1.5299  -1.0634  1.6399
H       3.1794  -1.1137  -1.5886
H       3.2192  -0.0989  -0.1644
H       -0.8317  -2.3384  -1.1372
H       -1.2311  -1.0616  -2.0536
