27

Co      0.0262  0.0281  0.0030
Cl      -1.0758  1.6058  -1.2239
Cl      1.0980  1.3447  1.2930
C       2.5800  -0.6709  -0.8155
C       2.1046  -1.9472  -0.0677
C       -2.4293  -1.3158  -0.4639
C       -2.3827  -1.0879  1.0765
N       1.3932  0.1121  -1.2449
N       1.0692  -1.5033  0.9075
N       -1.0774  -1.3457  -1.1380
N       -1.4246  -0.0017  1.4444
H       3.0228  -2.4569  0.2586
H       1.5500  -2.6141  -0.7182
H       -2.8747  -0.4797  -0.9918
H       -3.0953  -2.1906  -0.5425
H       1.7000  1.0575  -1.4500
H       1.2588  -0.2634  -2.1859
H       -1.9267  0.8820  1.4920
H       -1.1186  -0.1560  2.3948
H       -2.0183  -1.9488  1.6284
H       -3.4276  -0.9345  1.3666
H       0.5995  -2.3097  1.2825
H       1.6574  -1.2077  1.6929
H       3.3177  -1.0216  -1.5343
H       3.0567  0.0256  -0.1441
H       -0.8612  -2.3292  -1.2561
H       -1.2532  -1.0223  -2.0812
