27

Co      0.0683  0.0345  0.0000
Cl      -1.0897  1.5968  -1.2130
Cl      1.1370  1.4096  1.3429
C       2.5998  -0.7325  -0.8386
C       2.0912  -1.8416  -0.1058
C       -2.4958  -1.2890  -0.4101
C       -2.4626  -1.1557  1.0773
N       1.5439  0.0377  -1.2893
N       1.0598  -1.4660  0.8013
N       -1.1494  -1.3574  -1.0646
N       -1.5825  -0.0657  1.4196
H       3.0547  -2.2229  0.2873
H       1.6424  -2.6169  -0.7075
H       -2.9445  -0.4597  -0.9378
H       -3.1515  -2.1714  -0.4907
H       1.9101  0.9706  -1.5183
H       1.4068  -0.3447  -2.2207
H       -2.1096  0.7847  1.3113
H       -1.3839  -0.1078  2.4161
H       -2.0413  -2.0281  1.5600
H       -3.5162  -1.0936  1.3846
H       0.5859  -2.3213  1.0592
H       1.5919  -1.2522  1.6544
H       3.3728  -1.2045  -1.4839
H       3.1006  -0.0586  -0.1634
H       -0.9795  -2.3640  -1.1792
H       -1.3351  -1.0685  -2.0224
