27

Co      -0.0082  -0.0682  -0.0044
Cl      -1.1282  1.6644  -1.2331
Cl      1.1905  1.4806  1.3944
C       2.7057  -0.7232  -0.7948
C       2.1423  -1.9273  -0.1375
C       -2.5583  -1.2663  -0.4214
C       -2.4119  -1.1862  1.0623
N       1.5542  0.0509  -1.3297
N       1.1464  -1.4666  0.8800
N       -1.1795  -1.3337  -1.0233
N       -1.5467  -0.0188  1.3099
H       2.8184  -2.5164  0.4808
H       1.7176  -2.5853  -0.8895
H       -3.1132  -0.3889  -0.7247
H       -3.0301  -2.1508  -0.8514
H       1.6846  1.0589  -1.2610
H       1.1248  -0.1495  -2.2241
H       -1.9448  0.8817  1.0345
H       -1.1650  0.0879  2.2412
H       -1.9731  -2.1069  1.4291
H       -3.3398  -1.0205  1.5890
H       0.6051  -2.2214  1.2475
H       1.4688  -0.8496  1.6362
H       3.2811  -0.8835  -1.7079
H       3.3180  -0.1795  -0.0890
H       -0.7364  -2.2396  -1.0338
H       -1.1628  -0.9263  -1.9432
