27

Co      -0.0067  -0.0276  -0.0211
Cl      -1.1010  1.6357  -1.2351
Cl      1.1753  1.4794  1.3898
C       2.6781  -0.7134  -0.8312
C       2.1319  -1.9323  -0.0922
C       -2.5309  -1.3290  -0.4211
C       -2.4954  -1.1781  1.0850
N       1.5460  0.0810  -1.3977
N       1.0588  -1.5426  0.8823
N       -1.1127  -1.2115  -0.9311
N       -1.4948  -0.1022  1.3292
H       2.9348  -2.4502  0.4108
H       1.6919  -2.6238  -0.7945
H       -3.1003  -0.5257  -0.8643
H       -2.9531  -2.2764  -0.7460
H       1.7712  1.0620  -1.4043
H       1.3299  -0.1685  -2.3442
H       -1.9213  0.8017  1.2309
H       -1.1306  -0.1298  2.2637
H       -2.1736  -2.0865  1.5813
H       -3.4677  -0.9136  1.4805
H       0.5577  -2.3579  1.1820
H       1.4665  -1.1233  1.6999
H       3.3602  -1.0413  -1.6030
H       3.2159  -0.0727  -0.1582
H       -0.6968  -2.1256  -0.9525
H       -1.1583  -0.8864  -1.8779
