27

Co      0.0031  -0.0005  -0.0136
Cl      -1.0681  1.5746  -1.1890
Cl      1.1774  1.4705  1.3901
C       2.7331  -0.6748  -0.8315
C       2.1461  -2.0138  -0.0778
C       -2.5747  -1.3438  -0.4802
C       -2.4342  -1.1802  1.0778
N       1.4457  0.1100  -1.3609
N       1.0166  -1.4576  0.8675
N       -1.1636  -1.3247  -1.0407
N       -1.4536  -0.0163  1.3310
H       2.8265  -2.6742  0.4677
H       1.6277  -2.6045  -0.8389
H       -3.0496  -0.4464  -0.8583
H       -3.1334  -2.2018  -0.8274
H       1.6191  1.0966  -1.4630
H       1.1735  -0.2254  -2.2669
H       -1.9164  0.8735  1.2452
H       -1.0717  -0.0356  2.2585
H       -2.0377  -2.0604  1.5627
H       -3.3837  -0.9543  1.5396
H       0.4148  -2.1829  1.2206
H       1.4523  -1.0209  1.6583
H       3.3722  -0.8917  -1.6764
H       3.2535  -0.0017  -0.1637
H       -0.7789  -2.2511  -1.0517
H       -1.1888  -0.9942  -1.9869
