27

Co      -0.0492  -0.0171  -0.0398
Cl      -1.1205  1.6595  -1.2363
Cl      1.2100  1.5055  1.4146
C       2.7404  -0.7169  -0.8208
C       2.2094  -2.0399  -0.1412
C       -2.5956  -1.3157  -0.4269
C       -2.4537  -1.1847  1.0617
N       1.5366  0.0698  -1.3411
N       1.1655  -1.5772  0.9898
N       -1.1823  -1.2782  -0.9782
N       -1.4944  -0.0752  1.2831
H       2.9152  -2.5995  0.4698
H       1.7710  -2.7233  -0.8586
H       -3.2293  -0.5065  -0.7878
H       -2.9585  -2.2709  -0.8366
H       1.6624  1.0846  -1.2245
H       1.1156  -0.0859  -2.2523
H       -1.8757  0.8484  1.1327
H       -1.0278  -0.0559  2.1811
H       -2.0745  -2.1266  1.4371
H       -3.3557  -0.9324  1.6098
H       0.6648  -2.3404  1.4086
H       1.5237  -0.9231  1.7108
H       3.3911  -0.7276  -1.7315
H       3.2529  -0.1734  -0.0306
H       -0.6611  -2.1552  -0.9240
H       -1.1550  -0.9270  -1.9160
