27

Co      -0.0439  -0.0025  -0.0262
Cl      -1.0654  1.5568  -1.1782
Cl      1.1932  1.4764  1.3950
C       2.7729  -0.7056  -0.8447
C       2.1977  -2.0364  -0.0746
C       -2.5883  -1.3379  -0.4761
C       -2.4295  -1.1804  1.0808
N       1.4788  0.1182  -1.3192
N       1.0780  -1.4554  0.8706
N       -1.1890  -1.2910  -1.0636
N       -1.4788  0.0105  1.3276
H       2.8849  -2.6839  0.4788
H       1.6772  -2.6441  -0.8158
H       -3.0909  -0.4514  -0.8451
H       -3.1302  -2.2078  -0.8175
H       1.6691  1.1097  -1.3359
H       1.2311  -0.1356  -2.2570
H       -1.9586  0.8922  1.2498
H       -1.0757  -0.0041  2.2485
H       -1.9939  -2.0497  1.5546
H       -3.3789  -0.9875  1.5579
H       0.5324  -2.1826  1.3095
H       1.5315  -0.9338  1.6102
H       3.3690  -0.9230  -1.7255
H       3.3395  -0.0514  -0.1941
H       -0.7839  -2.2126  -1.0911
H       -1.2301  -0.9430  -2.0036
