27

Co      -0.0025  -0.0049  0.0049
Cl      -1.0859  1.6095  -1.2131
Cl      1.1547  1.4369  1.3556
C       2.6613  -0.7176  -0.7909
C       2.1351  -1.9308  -0.1235
C       -2.5422  -1.2985  -0.4333
C       -2.4108  -1.1576  1.0416
N       1.4944  0.0431  -1.2972
N       1.0825  -1.4617  0.8228
N       -1.1450  -1.2990  -0.9762
N       -1.4536  -0.0650  1.2912
H       2.8133  -2.4473  0.5617
H       1.7832  -2.6508  -0.8609
H       -3.1493  -0.4827  -0.7895
H       -2.9396  -2.2372  -0.8277
H       1.6410  1.0387  -1.3015
H       1.0170  -0.2051  -2.1645
H       -1.8210  0.8624  1.1298
H       -1.0317  -0.0548  2.1986
H       -2.0620  -2.1007  1.4434
H       -3.3242  -0.8880  1.5575
H       0.4881  -2.2083  1.1232
H       1.3744  -0.9073  1.6281
H       3.2221  -0.8575  -1.7236
H       3.2778  -0.1712  -0.0916
H       -0.6546  -2.1800  -0.9267
H       -1.1139  -0.9442  -1.9135
