27

Co      -0.0368  -0.0228  -0.0493
Cl      -1.1119  1.6385  -1.2277
Cl      1.2014  1.4897  1.4083
C       2.7208  -0.7501  -0.7822
C       2.1851  -1.9764  -0.1395
C       -2.5446  -1.2921  -0.3996
C       -2.4924  -1.2057  1.0900
N       1.5701  0.0313  -1.3367
N       1.1820  -1.5062  0.8637
N       -1.1492  -1.2452  -0.9685
N       -1.5901  -0.0658  1.3601
H       2.8808  -2.5293  0.4937
H       1.7926  -2.6572  -0.8828
H       -3.1504  -0.4506  -0.7205
H       -2.9285  -2.2158  -0.8687
H       1.7318  1.0330  -1.2655
H       1.1706  -0.1616  -2.2427
H       -1.9804  0.8457  1.1740
H       -1.1524  -0.0334  2.2702
H       -2.1297  -2.1346  1.5068
H       -3.4454  -0.9818  1.5416
H       0.6609  -2.2593  1.2717
H       1.5025  -0.8429  1.5982
H       3.3233  -0.8755  -1.6852
H       3.3017  -0.2060  -0.0515
H       -0.6290  -2.1232  -0.9492
H       -1.1558  -0.8744  -1.8998
