27

Co      0.0609  -0.0035  0.0171
Cl      -1.1204  1.6611  -1.2499
Cl      1.1271  1.3998  1.3231
C       2.5792  -0.7415  -0.8062
C       2.1116  -1.8535  -0.1221
C       -2.4887  -1.2725  -0.3995
C       -2.4296  -1.1419  1.0576
N       1.5171  0.0240  -1.2285
N       1.1021  -1.4750  0.8015
N       -1.1328  -1.3480  -1.0268
N       -1.5320  -0.0765  1.3673
H       2.9897  -2.2171  0.4113
H       1.7523  -2.6629  -0.7538
H       -3.0194  -0.4657  -0.8603
H       -3.0242  -2.1911  -0.5981
H       1.7972  0.9831  -1.3315
H       1.1845  -0.2615  -2.1294
H       -1.9661  0.8137  1.1880
H       -1.2634  -0.0734  2.3361
H       -2.0560  -2.0577  1.4925
H       -3.4281  -0.9910  1.4413
H       0.5882  -2.2983  1.0595
H       1.5098  -1.1071  1.6422
H       3.2328  -1.0603  -1.5995
H       3.1677  -0.1610  -0.1191
H       -0.8408  -2.3043  -1.0903
H       -1.2352  -1.0078  -1.9678
