27

Co      0.0141  0.0612  0.0030
Cl      -1.0427  1.5390  -1.1845
Cl      1.1054  1.3544  1.3079
C       2.6058  -0.6641  -0.8300
C       2.0749  -1.9141  -0.0696
C       -2.4681  -1.3281  -0.4706
C       -2.3966  -1.1042  1.0628
N       1.4501  0.1141  -1.3448
N       1.0349  -1.5029  0.9180
N       -1.1029  -1.3145  -1.0973
N       -1.4251  -0.0203  1.4105
H       2.9804  -2.4578  0.2442
H       1.5085  -2.5586  -0.7358
H       -2.9407  -0.5103  -1.0054
H       -3.0928  -2.2239  -0.5546
H       1.7605  1.0564  -1.5771
H       1.3375  -0.3008  -2.2783
H       -1.9383  0.8603  1.4836
H       -1.1049  -0.1864  2.3521
H       -2.0160  -1.9702  1.5952
H       -3.4232  -0.9506  1.3950
H       0.5590  -2.3261  1.2437
H       1.6093  -1.2477  1.7293
H       3.3811  -1.0762  -1.5004
H       3.0632  0.0512  -0.1596
H       -0.8589  -2.2884  -1.1755
H       -1.2495  -1.0233  -2.0517
