27

Co      0.0008  -0.0127  0.0369
Cl      -1.0776  1.6160  -1.2298
Cl      1.0997  1.3508  1.2924
C       2.6319  -0.6800  -0.8042
C       2.0922  -1.9074  -0.1053
C       -2.4207  -1.2981  -0.4567
C       -2.3611  -1.0801  1.0579
N       1.4374  0.0609  -1.2578
N       1.0401  -1.4108  0.8293
N       -1.0665  -1.3368  -1.1097
N       -1.4106  -0.0047  1.4222
H       2.8462  -2.4536  0.4266
H       1.6237  -2.5796  -0.8109
H       -2.9453  -0.4814  -0.9122
H       -2.9732  -2.2044  -0.6533
H       1.6307  1.0332  -1.3943
H       1.1139  -0.2856  -2.1492
H       -1.8245  0.9131  1.3791
H       -1.0581  -0.1052  2.3540
H       -2.0296  -1.9805  1.5593
H       -3.3585  -0.8662  1.4149
H       0.4962  -2.1752  1.1719
H       1.4866  -0.9918  1.6239
H       3.2720  -0.9322  -1.6340
H       3.1824  -0.0591  -0.1244
H       -0.7384  -2.2760  -1.2212
H       -1.1551  -0.9199  -2.0212
