27

Co      -0.0013  0.0239  0.0163
Cl      -1.0647  1.5859  -1.2093
Cl      1.0939  1.3524  1.2888
C       2.6337  -0.6958  -0.8360
C       2.1124  -1.9104  -0.0798
C       -2.4356  -1.2718  -0.4458
C       -2.3878  -1.1289  1.0655
N       1.4797  0.0956  -1.3249
N       1.0077  -1.5008  0.8422
N       -1.0424  -1.2882  -0.9942
N       -1.4495  -0.0272  1.3958
H       2.9050  -2.3848  0.4676
H       1.7072  -2.6399  -0.7685
H       -2.9328  -0.4291  -0.8833
H       -2.9629  -2.1660  -0.7297
H       1.7082  1.0649  -1.4034
H       1.1844  -0.1969  -2.2400
H       -1.8961  0.8694  1.3374
H       -1.0892  -0.0948  2.3237
H       -2.0181  -2.0324  1.5322
H       -3.3759  -0.9430  1.4606
H       0.4513  -2.3023  1.0841
H       1.3986  -1.1466  1.7007
H       3.2611  -1.0117  -1.6553
H       3.2131  -0.0661  -0.1876
H       -0.6707  -2.2119  -0.9668
H       -1.0778  -0.9969  -1.9513
