27

Co      -0.0492  -0.0105  -0.0385
Cl      -1.0913  1.6357  -1.2135
Cl      1.2313  1.5531  1.4501
C       2.6813  -0.7317  -0.8016
C       2.1767  -1.9832  -0.1219
C       -2.5549  -1.3165  -0.4511
C       -2.4194  -1.1751  1.0524
N       1.4876  0.0259  -1.2985
N       1.0861  -1.5347  0.8098
N       -1.1676  -1.3843  -1.0156
N       -1.4723  -0.0598  1.3165
H       2.9676  -2.4833  0.4294
H       1.7699  -2.6875  -0.8300
H       -3.0353  -0.4498  -0.8773
H       -3.1255  -2.1926  -0.7268
H       1.7131  1.0055  -1.3726
H       1.2354  -0.2654  -2.2200
H       -1.9291  0.8318  1.2589
H       -1.0782  -0.1076  2.2407
H       -2.0132  -2.0741  1.4892
H       -3.3741  -0.9943  1.5121
H       0.5913  -2.3265  1.1705
H       1.5058  -1.0719  1.5978
H       3.3634  -0.9500  -1.6050
H       3.1880  -0.0934  -0.0922
H       -0.8003  -2.3209  -0.9207
H       -1.1997  -1.1752  -2.0012
