27

Co      0.0482  0.0189  0.0300
Cl      -1.0879  1.5941  -1.2166
Cl      1.0925  1.3489  1.2829
C       2.6539  -0.7046  -0.8722
C       2.1159  -1.8889  -0.0600
C       -2.4854  -1.2777  -0.4354
C       -2.4154  -1.1502  1.0783
N       1.5347  0.1406  -1.3578
N       1.0280  -1.5158  0.8987
N       -1.1119  -1.3227  -1.0505
N       -1.5247  -0.0043  1.4136
H       2.9248  -2.3705  0.4522
H       1.6812  -2.6143  -0.7351
H       -2.9735  -0.4154  -0.8471
H       -3.0507  -2.1524  -0.7129
H       1.7837  1.1085  -1.3968
H       1.2284  -0.1134  -2.2796
H       -1.9892  0.8739  1.2770
H       -1.2142  -0.0197  2.3638
H       -2.0018  -2.0393  1.5335
H       -3.4138  -1.0149  1.4778
H       0.4455  -2.3301  1.0746
H       1.4058  -1.2086  1.7873
H       3.2442  -1.0949  -1.6985
H       3.2952  -0.0810  -0.2655
H       -0.7839  -2.2646  -1.1248
H       -1.1775  -0.9439  -1.9798
