27

Co      0.0505  -0.0070  0.0187
Cl      -1.1001  1.6202  -1.2269
Cl      1.1404  1.4125  1.3457
C       2.5821  -0.7052  -0.8134
C       2.0566  -1.8262  -0.1162
C       -2.5275  -1.3167  -0.4235
C       -2.4365  -1.1259  1.0474
N       1.5247  0.0356  -1.2924
N       1.0893  -1.4471  0.8554
N       -1.1637  -1.2840  -1.0299
N       -1.4738  -0.0947  1.3058
H       3.0169  -2.2809  0.2079
H       1.5391  -2.5447  -0.7365
H       -3.0617  -0.5559  -0.9860
H       -3.0833  -2.2696  -0.4658
H       1.8579  0.9789  -1.4979
H       1.4170  -0.3454  -2.2316
H       -1.9675  0.7801  1.2091
H       -1.2592  -0.1323  2.2940
H       -2.0472  -2.0123  1.5345
H       -3.4446  -0.9787  1.4160
H       0.6819  -2.3041  1.2088
H       1.6767  -1.1674  1.6465
H       3.3878  -1.1650  -1.4405
H       3.0513  -0.0326  -0.1158
H       -0.9649  -2.2780  -1.1646
H       -1.3258  -0.9610  -1.9749
