27

Co      0.0039  -0.0153  0.0225
Cl      -1.0663  1.5726  -1.2003
Cl      1.1260  1.3819  1.3190
C       2.6340  -0.6950  -0.8489
C       2.0904  -1.8645  -0.1397
C       -2.4648  -1.2806  -0.4270
C       -2.3649  -1.0702  1.0429
N       1.4993  0.0438  -1.2273
N       1.0424  -1.3785  0.8555
N       -1.1362  -1.3364  -1.1419
N       -1.4554  -0.0248  1.3774
H       2.8999  -2.2885  0.4315
H       1.6547  -2.6478  -0.7515
H       -3.0655  -0.5338  -0.9262
H       -2.9745  -2.2447  -0.5173
H       1.7112  1.0192  -1.3008
H       1.1517  -0.2327  -2.1304
H       -1.8709  0.8844  1.2492
H       -1.1563  -0.0619  2.3300
H       -1.9830  -1.9835  1.4725
H       -3.3501  -0.9187  1.4493
H       0.5560  -2.1736  1.2184
H       1.5102  -0.9414  1.6272
H       3.3316  -0.9075  -1.6496
H       3.1528  -0.1182  -0.0996
H       -0.8542  -2.2951  -1.3313
H       -1.2714  -0.8676  -2.0364
