27

Co      -0.0644  0.0195  -0.0244
Cl      -1.0874  1.6003  -1.1976
Cl      1.2244  1.5317  1.4323
C       2.7952  -0.7366  -0.8580
C       2.2174  -2.0142  -0.1443
C       -2.6195  -1.3105  -0.4408
C       -2.4420  -1.2018  1.0459
N       1.5858  0.0470  -1.3769
N       1.0845  -1.5401  0.8954
N       -1.2105  -1.3453  -0.9801
N       -1.5153  -0.0647  1.2907
H       2.8780  -2.5433  0.5690
H       1.8440  -2.7367  -0.8630
H       -3.2099  -0.4738  -0.7950
H       -3.0374  -2.2358  -0.8449
H       1.7172  1.0563  -1.3124
H       1.1388  -0.1494  -2.2668
H       -1.9210  0.8435  1.1483
H       -1.0580  -0.0503  2.1907
H       -2.0129  -2.1406  1.3857
H       -3.3354  -1.0023  1.6307
H       0.5210  -2.3074  1.2054
H       1.3863  -0.9730  1.6891
H       3.4215  -0.7998  -1.7687
H       3.3379  -0.1795  -0.0985
H       -0.7045  -2.2296  -0.8667
H       -1.1528  -1.0502  -1.9381
