27

Co      -0.0615  -0.0665  -0.0372
Cl      -1.0913  1.6350  -1.2147
Cl      1.1886  1.5027  1.3977
C       2.6463  -0.7264  -0.8123
C       2.1604  -1.9417  -0.1007
C       -2.5063  -1.2532  -0.4211
C       -2.3924  -1.1716  1.0550
N       1.5069  0.0859  -1.3264
N       1.0686  -1.5650  0.8549
N       -1.0865  -1.2435  -0.8994
N       -1.4518  -0.0568  1.2572
H       2.8873  -2.3899  0.5842
H       1.8590  -2.7125  -0.8183
H       -3.0873  -0.4122  -0.7599
H       -2.8900  -2.1793  -0.8903
H       1.6533  1.0978  -1.1440
H       1.1157  -0.0095  -2.2658
H       -1.8297  0.8600  1.0665
H       -1.0004  0.0055  2.1558
H       -2.0091  -2.1080  1.4382
H       -3.3003  -0.9243  1.5904
H       0.5474  -2.3580  1.1602
H       1.3250  -0.9696  1.6630
H       3.1821  -0.9041  -1.7498
H       3.2928  -0.1782  -0.1425
H       -0.5605  -2.1143  -0.7561
H       -1.0193  -0.9711  -1.8665
