27

Co      -0.0329  -0.0020  -0.0355
Cl      -1.0915  1.6071  -1.2176
Cl      1.1844  1.4698  1.3813
C       2.7027  -0.7548  -0.7669
C       2.2162  -2.0202  -0.0725
C       -2.5844  -1.3529  -0.4360
C       -2.4849  -1.1979  1.0801
N       1.4822  0.0861  -1.2831
N       1.1768  -1.5058  0.8141
N       -1.1704  -1.2060  -0.9603
N       -1.4854  -0.0561  1.3050
H       2.8713  -2.6118  0.5850
H       1.8395  -2.6740  -0.8601
H       -3.2100  -0.5141  -0.7381
H       -2.9345  -2.2866  -0.9432
H       1.6592  1.0839  -1.2083
H       1.0734  -0.0935  -2.1911
H       -1.8623  0.8723  1.2156
H       -0.9867  -0.0858  2.1867
H       -2.1817  -2.1150  1.5724
H       -3.4100  -0.8492  1.5471
H       0.5874  -2.2176  1.2089
H       1.4634  -0.8416  1.5702
H       3.1525  -0.9347  -1.7742
H       3.4144  -0.1897  -0.1588
H       -0.5838  -2.0542  -0.9179
H       -1.1534  -0.8390  -1.8947
