27

Co      0.0106  0.0739  -0.0010
Cl      -1.0737  1.5766  -1.2009
Cl      1.1425  1.4073  1.3423
C       2.6732  -0.7131  -0.8481
C       2.1489  -1.9545  -0.0768
C       -2.5381  -1.3317  -0.4625
C       -2.4390  -1.1610  1.0679
N       1.5045  0.0889  -1.3268
N       1.0729  -1.5302  0.8760
N       -1.1589  -1.3478  -1.0583
N       -1.4967  -0.0373  1.3890
H       3.0514  -2.4663  0.2842
H       1.6220  -2.6304  -0.7349
H       -2.9742  -0.4770  -0.9721
H       -3.1890  -2.2012  -0.5920
H       1.8392  1.0314  -1.5418
H       1.3921  -0.2962  -2.2661
H       -2.0414  0.8203  1.4154
H       -1.1951  -0.1555  2.3444
H       -2.0060  -2.0229  1.5649
H       -3.4548  -1.0506  1.4406
H       0.5901  -2.3571  1.1899
H       1.6304  -1.2776  1.6985
H       3.4218  -1.1235  -1.5394
H       3.1592  -0.0031  -0.1888
H       -0.9129  -2.3267  -1.0707
H       -1.2823  -1.1234  -2.0374
