27

Co      0.0170  0.0060  -0.0151
Cl      -1.0794  1.6180  -1.2185
Cl      1.1512  1.4369  1.3635
C       2.6307  -0.6899  -0.8105
C       2.1190  -1.9580  -0.0961
C       -2.4715  -1.3118  -0.4568
C       -2.4254  -1.1431  1.0811
N       1.4133  0.0459  -1.2593
N       1.0158  -1.4559  0.7895
N       -1.0819  -1.3393  -1.0351
N       -1.4568  -0.0506  1.3893
H       2.9831  -2.4583  0.3327
H       1.6228  -2.6422  -0.7651
H       -2.8789  -0.4431  -0.9652
H       -3.1302  -2.1692  -0.6145
H       1.6998  0.9973  -1.4996
H       1.2971  -0.3652  -2.1921
H       -1.9684  0.8203  1.3639
H       -1.1784  -0.1294  2.3560
H       -2.0479  -2.0105  1.6105
H       -3.4499  -0.9855  1.4062
H       0.5206  -2.2451  1.1665
H       1.5805  -1.1587  1.5858
H       3.3999  -1.0112  -1.5092
H       3.0613  0.0234  -0.1133
H       -0.8520  -2.3227  -1.0573
H       -1.2104  -1.1108  -2.0127
