27

Co      -0.0527  -0.0286  -0.0269
Cl      -1.0665  1.5883  -1.2025
Cl      1.2029  1.5095  1.4182
C       2.7011  -0.7298  -0.7884
C       2.1417  -1.9356  -0.1395
C       -2.5271  -1.3268  -0.4222
C       -2.4586  -1.1537  1.0593
N       1.5263  0.0081  -1.3301
N       1.0651  -1.4327  0.7722
N       -1.1350  -1.2514  -0.9787
N       -1.4710  -0.0895  1.3274
H       2.7899  -2.4628  0.5892
H       1.8035  -2.6497  -0.8860
H       -3.1823  -0.5475  -0.7979
H       -2.8689  -2.3000  -0.8154
H       1.6582  1.0092  -1.3159
H       1.0961  -0.2380  -2.2120
H       -1.8132  0.8542  1.2172
H       -1.0128  -0.1267  2.2225
H       -2.1747  -2.0975  1.5121
H       -3.3899  -0.8322  1.5090
H       0.4971  -2.1751  1.1210
H       1.3525  -0.8226  1.5517
H       3.2924  -0.8640  -1.6960
H       3.2835  -0.1725  -0.0714
H       -0.6072  -2.1215  -0.9806
H       -1.1344  -0.8580  -1.9014
