27

Co      0.0333  0.0035  0.0564
Cl      -1.1139  1.6702  -1.2630
Cl      1.1166  1.3817  1.3198
C       2.6701  -0.6688  -0.8269
C       2.0767  -1.9054  -0.1017
C       -2.4795  -1.3425  -0.4710
C       -2.4184  -1.1168  1.0644
N       1.4933  0.0578  -1.3643
N       1.0340  -1.4694  0.8860
N       -1.1047  -1.3655  -1.0829
N       -1.4347  -0.0455  1.4162
H       2.9278  -2.5252  0.2177
H       1.4765  -2.4919  -0.8056
H       -2.9184  -0.5063  -1.0088
H       -3.1314  -2.2237  -0.5630
H       1.7575  1.0072  -1.6495
H       1.3745  -0.4156  -2.2768
H       -1.9275  0.8397  1.4238
H       -1.1701  -0.1753  2.3869
H       -2.0576  -1.9886  1.6041
H       -3.4431  -0.9479  1.3847
H       0.5414  -2.2902  1.1921
H       1.6196  -1.2498  1.7099
H       3.4698  -1.0868  -1.4738
H       3.1026  0.0549  -0.1447
H       -0.8994  -2.3565  -1.2051
H       -1.2282  -1.0294  -2.0209
