27

Co      -0.0457  -0.0213  -0.0311
Cl      -1.0776  1.6117  -1.2135
Cl      1.2140  1.5253  1.4294
C       2.7357  -0.6911  -0.8181
C       2.1853  -2.0538  -0.0827
C       -2.5632  -1.3815  -0.4802
C       -2.4458  -1.1537  1.0779
N       1.4293  0.0918  -1.3221
N       1.0540  -1.4950  0.8642
N       -1.1625  -1.3181  -1.0669
N       -1.4117  -0.0361  1.3433
H       2.8815  -2.6955  0.4658
H       1.6801  -2.6548  -0.8382
H       -3.0868  -0.5300  -0.8957
H       -3.0824  -2.2787  -0.7847
H       1.6010  1.0830  -1.3816
H       1.1814  -0.2047  -2.2473
H       -1.8405  0.8798  1.3513
H       -0.9722  -0.1364  2.2495
H       -2.1206  -2.0385  1.6102
H       -3.3993  -0.8560  1.4954
H       0.5024  -2.2260  1.2796
H       1.5005  -0.9944  1.6200
H       3.3731  -0.8661  -1.6772
H       3.2482  -0.0228  -0.1396
H       -0.7468  -2.2339  -1.1014
H       -1.2138  -0.9703  -2.0051
