27

Co      -0.0531  -0.0369  -0.0459
Cl      -1.0581  1.5647  -1.1788
Cl      1.1890  1.4890  1.4057
C       2.6634  -0.7024  -0.8129
C       2.1170  -1.9276  -0.1033
C       -2.5281  -1.2907  -0.4342
C       -2.4310  -1.1703  1.0649
N       1.5081  0.0719  -1.3583
N       1.0514  -1.4842  0.8480
N       -1.1051  -1.1810  -0.9126
N       -1.4539  -0.0727  1.2566
H       2.9016  -2.4513  0.4246
H       1.6792  -2.6221  -0.8059
H       -3.0933  -0.4769  -0.8588
H       -2.9508  -2.2318  -0.7697
H       1.7192  1.0601  -1.3420
H       1.3121  -0.1624  -2.3154
H       -1.9024  0.8208  1.1383
H       -1.0729  -0.0530  2.1818
H       -2.0399  -2.0743  1.5130
H       -3.3753  -0.9475  1.5372
H       0.5948  -2.2805  1.2574
H       1.4850  -0.9753  1.6048
H       3.3508  -0.9853  -1.5950
H       3.1802  -0.0655  -0.1186
H       -0.6770  -2.0914  -0.8560
H       -1.1236  -0.9205  -1.8819
