27

Co      -0.0439  0.0039  -0.0297
Cl      -1.0564  1.5628  -1.1812
Cl      1.1872  1.4764  1.3980
C       2.6679  -0.7110  -0.8100
C       2.1345  -1.9421  -0.1094
C       -2.5238  -1.3111  -0.4495
C       -2.4081  -1.1449  1.0558
N       1.4937  0.0580  -1.3164
N       1.0748  -1.4789  0.8388
N       -1.1493  -1.3129  -1.0457
N       -1.4649  -0.0352  1.3390
H       2.9167  -2.4688  0.4191
H       1.6896  -2.6300  -0.8112
H       -3.0588  -0.4824  -0.8823
H       -3.0465  -2.2194  -0.6999
H       1.7191  1.0350  -1.3846
H       1.2389  -0.2343  -2.2391
H       -1.9163  0.8619  1.2924
H       -1.0721  -0.0981  2.2585
H       -2.0134  -2.0409  1.5111
H       -3.3749  -0.9590  1.4927
H       0.5818  -2.2633  1.2180
H       1.5102  -1.0037  1.6104
H       3.3408  -0.9679  -1.6115
H       3.1943  -0.0787  -0.1146
H       -0.7723  -2.2419  -1.0402
H       -1.2110  -1.0145  -2.0002
