27

Co      0.0106  0.0720  -0.0044
Cl      -1.0564  1.5631  -1.1844
Cl      1.1226  1.3823  1.3286
C       2.5469  -0.7091  -0.7908
C       2.0617  -1.8344  -0.1270
C       -2.4598  -1.2541  -0.4279
C       -2.3657  -1.1256  1.0282
N       1.5265  0.0391  -1.3439
N       1.0897  -1.5517  0.8773
N       -1.1172  -1.3989  -1.0505
N       -1.4993  -0.0440  1.3928
H       2.9712  -2.2456  0.3121
H       1.6663  -2.5913  -0.7865
H       -2.9617  -0.4301  -0.8963
H       -3.0452  -2.1469  -0.5965
H       1.8181  0.9880  -1.5138
H       1.2191  -0.3252  -2.2282
H       -1.9634  0.8441  1.3549
H       -1.1475  -0.1441  2.3206
H       -1.9404  -2.0421  1.4197
H       -3.3617  -1.0390  1.4480
H       0.6026  -2.4084  1.0938
H       1.4967  -1.2209  1.7343
H       3.2852  -1.0511  -1.5099
H       3.0619  -0.1010  -0.0713
H       -0.8081  -2.3483  -0.9766
H       -1.1855  -1.1783  -2.0297
