27

Co      0.0640  -0.0152  0.0064
Cl      -1.0918  1.6042  -1.2039
Cl      1.1335  1.4060  1.3360
C       2.5748  -0.7148  -0.7762
C       2.0803  -1.8579  -0.0822
C       -2.5134  -1.2669  -0.4350
C       -2.3905  -1.1669  1.0608
N       1.4677  0.0754  -1.2728
N       1.0925  -1.4436  0.7912
N       -1.1531  -1.3634  -1.0495
N       -1.5198  -0.0056  1.3402
H       2.8931  -2.3675  0.4046
H       1.6561  -2.5472  -0.7991
H       -2.9626  -0.3634  -0.8061
H       -3.1333  -2.1034  -0.7316
H       1.7325  1.0373  -1.3935
H       1.1712  -0.2466  -2.1730
H       -1.9924  0.8645  1.1445
H       -1.2295  0.0383  2.2996
H       -1.9494  -2.0494  1.5044
H       -3.3773  -1.0443  1.4886
H       0.5316  -2.2239  1.0727
H       1.4902  -1.0496  1.6226
H       3.1578  -1.1029  -1.6004
H       3.2172  -0.0926  -0.1698
H       -0.8527  -2.3177  -1.0714
H       -1.2198  -1.0459  -2.0007
