27

Co      0.0725  0.0558  0.0221
Cl      -1.0723  1.5857  -1.2164
Cl      1.0729  1.3125  1.2655
C       2.5740  -0.6743  -0.8483
C       2.0797  -1.8953  -0.1106
C       -2.4527  -1.2930  -0.4339
C       -2.4069  -1.0934  1.0588
N       1.4322  0.0602  -1.2203
N       1.0113  -1.4402  0.8731
N       -1.0813  -1.3110  -1.0572
N       -1.4427  -0.0740  1.3856
H       3.0225  -2.2763  0.3015
H       1.5918  -2.6813  -0.6839
H       -2.9558  -0.5256  -1.0175
H       -3.0376  -2.2319  -0.4570
H       1.7455  1.0006  -1.4724
H       1.2332  -0.3380  -2.1341
H       -1.9356  0.8061  1.3331
H       -1.2220  -0.1565  2.3677
H       -2.0388  -1.9889  1.5440
H       -3.4311  -0.9526  1.3959
H       0.5306  -2.2631  1.1967
H       1.6045  -1.2109  1.6865
H       3.3929  -0.9707  -1.5238
H       2.9860  -0.0119  -0.0928
H       -0.8937  -2.3029  -1.1715
H       -1.2525  -1.0029  -2.0065
