27

Co      0.0498  -0.0146  0.0316
Cl      -1.0918  1.6261  -1.2359
Cl      1.0924  1.3518  1.2936
C       2.5462  -0.6773  -0.8034
C       2.0375  -1.8339  -0.0467
C       -2.4377  -1.3096  -0.4529
C       -2.3936  -1.1060  1.0702
N       1.4670  0.1236  -1.3457
N       1.0598  -1.5119  0.8869
N       -1.0809  -1.3049  -1.0764
N       -1.4387  -0.0161  1.4041
H       2.9759  -2.3759  0.2135
H       1.4884  -2.4671  -0.7360
H       -2.8842  -0.4692  -0.9628
H       -3.0824  -2.1858  -0.5716
H       1.7937  1.0642  -1.5316
H       1.3866  -0.2552  -2.2983
H       -1.9367  0.8619  1.3927
H       -1.1698  -0.1255  2.3677
H       -2.0282  -1.9637  1.6323
H       -3.4374  -0.9447  1.3624
H       0.5923  -2.3632  1.1544
H       1.5961  -1.2852  1.7354
H       3.2439  -1.2504  -1.4761
H       3.1143  0.0347  -0.2275
H       -0.8652  -2.2883  -1.2054
H       -1.2292  -0.9675  -2.0162
