27

Co      -0.0035  0.0156  -0.0068
Cl      -1.1194  1.6495  -1.2319
Cl      1.1944  1.4922  1.3949
C       2.7835  -0.7410  -0.8568
C       2.2274  -2.0241  -0.1402
C       -2.6062  -1.3022  -0.4285
C       -2.4638  -1.2120  1.0652
N       1.5566  0.0438  -1.3184
N       1.0841  -1.5142  0.8687
N       -1.1972  -1.3719  -0.9891
N       -1.5538  -0.0652  1.3290
H       2.8821  -2.5267  0.6020
H       1.8693  -2.7670  -0.8489
H       -3.1596  -0.4376  -0.7662
H       -3.0603  -2.2007  -0.8533
H       1.6915  1.0487  -1.2890
H       1.0606  -0.1660  -2.1912
H       -1.9575  0.8367  1.1174
H       -1.1518  -0.0110  2.2535
H       -2.0491  -2.1494  1.4187
H       -3.3770  -1.0179  1.6104
H       0.4654  -2.2591  1.1490
H       1.3806  -0.9817  1.6827
H       3.3795  -0.7792  -1.7990
H       3.3479  -0.1950  -0.1043
H       -0.7278  -2.2682  -0.9226
H       -1.1593  -1.0396  -1.9355
