27

Co      0.0031  0.0000  -0.0140
Cl      -1.0681  1.5746  -1.1890
Cl      1.1774  1.4705  1.3901
C       2.6535  -0.7058  -0.7952
C       2.1084  -1.9134  -0.1217
C       -2.5493  -1.3079  -0.4340
C       -2.4172  -1.1567  1.0467
N       1.5119  0.0588  -1.3567
N       1.0721  -1.4782  0.8583
N       -1.1780  -1.3467  -1.0424
N       -1.4864  -0.0469  1.3305
H       2.7959  -2.4531  0.5273
H       1.7322  -2.6085  -0.8663
H       -3.1470  -0.4804  -0.7837
H       -2.9891  -2.2285  -0.8036
H       1.6627  1.0519  -1.3732
H       1.0449  -0.2098  -2.2203
H       -1.8587  0.8780  1.1856
H       -1.0556  -0.0590  2.2339
H       -2.0589  -2.0909  1.4527
H       -3.3465  -0.9150  1.5408
H       0.4698  -2.2334  1.1243
H       1.3550  -0.9444  1.6768
H       3.2428  -0.8727  -1.6951
H       3.2513  -0.1467  -0.0914
H       -0.7110  -2.2382  -1.0397
H       -1.1768  -0.9587  -1.9683
