27

Co      -0.0202  -0.0336  -0.0010
Cl      -1.0897  1.5965  -1.2097
Cl      1.2016  1.5085  1.4123
C       2.7311  -0.7337  -0.8368
C       2.1355  -1.8971  -0.1148
C       -2.5938  -1.3376  -0.4191
C       -2.4765  -1.1750  1.0576
N       1.6153  0.0676  -1.4188
N       1.0806  -1.4841  0.8676
N       -1.2094  -1.2640  -1.0010
N       -1.5171  -0.0763  1.3064
H       2.8097  -2.4509  0.5447
H       1.7533  -2.5925  -0.8551
H       -3.2595  -0.5557  -0.7811
H       -2.9422  -2.3106  -0.8035
H       1.7653  1.0697  -1.3385
H       1.1982  -0.1279  -2.3171
H       -1.8773  0.8514  1.1374
H       -1.0942  -0.0685  2.2165
H       -2.1390  -2.1092  1.4843
H       -3.3986  -0.8944  1.5504
H       0.5083  -2.2660  1.1211
H       1.3501  -0.9427  1.6917
H       3.2948  -0.9909  -1.7294
H       3.3800  -0.1753  -0.1736
H       -0.7059  -2.1451  -1.0708
H       -1.2074  -0.8049  -1.9033
