27

Co      0.0106  0.0720  -0.0044
Cl      -1.0564  1.5631  -1.1844
Cl      1.1226  1.3823  1.3286
C       2.5515  -0.7046  -0.8135
C       2.0663  -1.8435  -0.1088
C       -2.4598  -1.2632  -0.4415
C       -2.3702  -1.1256  1.0373
N       1.5084  0.0481  -1.3212
N       1.0670  -1.5426  0.8637
N       -1.1081  -1.3807  -1.0459
N       -1.4857  -0.0440  1.3837
H       3.0664  -2.2456  0.2078
H       1.5982  -2.5913  -0.7275
H       -2.8891  -0.4301  -0.9871
H       -3.1360  -2.1378  -0.4967
H       1.8725  0.9789  -1.5682
H       1.3915  -0.3615  -2.2509
H       -2.0270  0.8123  1.3912
H       -1.2110  -0.1577  2.3433
H       -1.9087  -2.0058  1.4741
H       -3.3980  -1.0889  1.4117
H       0.6479  -2.4266  1.1346
H       1.6146  -1.3252  1.7071
H       3.3714  -1.1600  -1.4282
H       3.0030  -0.0193  -0.1122
H       -0.9124  -2.3755  -0.9948
H       -1.2354  -1.2282  -2.0478
