27

Co      0.0025  -0.0557  -0.0366
Cl      -1.1251  1.6867  -1.2454
Cl      1.2030  1.5263  1.4203
C       2.7402  -0.7009  -0.8169
C       2.2024  -2.0698  -0.0859
C       -2.5712  -1.3147  -0.4559
C       -2.4767  -1.2342  1.1028
N       1.4248  0.0787  -1.3088
N       1.0295  -1.5025  0.8151
N       -1.1048  -1.2753  -0.8943
N       -1.4805  -0.0672  1.2819
H       2.8920  -2.6704  0.5126
H       1.7484  -2.7059  -0.8421
H       -2.9946  -0.3741  -0.8089
H       -3.1064  -2.1521  -0.9285
H       1.5895  1.0768  -1.3419
H       1.1866  -0.1894  -2.2447
H       -1.9459  0.8112  1.0973
H       -1.1254  0.0138  2.2288
H       -2.0864  -2.1221  1.5795
H       -3.4170  -0.9878  1.5714
H       0.4484  -2.2267  1.2091
H       1.4542  -1.0243  1.5947
H       3.3746  -0.8569  -1.6818
H       3.2450  -0.0324  -0.1335
H       -0.6920  -2.1946  -0.7862
H       -1.0809  -1.0563  -1.8808
