27

Co      -0.0007  -0.0003  0.0090
Cl      -1.0938  1.6383  -1.2280
Cl      1.1195  1.3856  1.3221
C       2.5721  -0.7057  -0.7700
C       2.0791  -1.8651  -0.0842
C       -2.4294  -1.2565  -0.4447
C       -2.3615  -1.1391  1.0577
N       1.4955  0.0809  -1.3540
N       1.1072  -1.5589  0.8631
N       -1.0702  -1.3698  -1.0403
N       -1.4858  0.0027  1.4136
H       2.9274  -2.4005  0.3222
H       1.6353  -2.5174  -0.8222
H       -2.8648  -0.3570  -0.8454
H       -3.0551  -2.0911  -0.7332
H       1.7553  1.0417  -1.4605
H       1.2460  -0.2472  -2.2683
H       -1.9502  0.8887  1.3579
H       -1.1179  -0.0716  2.3401
H       -1.9494  -2.0277  1.5162
H       -3.3690  -1.0167  1.4388
H       0.6020  -2.3887  1.1129
H       1.5000  -1.1855  1.7101
H       3.2028  -1.1217  -1.5466
H       3.1762  -0.0679  -0.1532
H       -0.7349  -2.3103  -0.9827
H       -1.1116  -1.1139  -2.0084
