27

Co      -0.0496  -0.0317  -0.0510
Cl      -1.0782  1.5856  -1.1834
Cl      1.2131  1.5257  1.4208
C       2.6519  -0.7332  -0.8518
C       2.1809  -1.9554  -0.0675
C       -2.5778  -1.2885  -0.4400
C       -2.3997  -1.1763  1.0553
N       1.5138  0.1329  -1.3117
N       1.0968  -1.5901  0.9048
N       -1.1850  -1.2868  -0.9930
N       -1.4744  -0.0279  1.2475
H       3.0342  -2.3940  0.4457
H       1.7787  -2.7156  -0.7271
H       -3.1032  -0.4404  -0.8471
H       -3.0919  -2.1908  -0.7372
H       1.7711  1.1208  -1.1883
H       1.3013  0.0170  -2.2981
H       -1.9514  0.8469  1.1222
H       -1.0881  0.0024  2.1721
H       -1.9315  -2.0628  1.4647
H       -3.3365  -1.0233  1.5758
H       0.6467  -2.4188  1.2508
H       1.4973  -1.1091  1.6966
H       3.2487  -1.0520  -1.6948
H       3.2723  -0.1143  -0.2185
H       -0.7967  -2.2144  -0.9274
H       -1.2165  -1.0418  -1.9700
