27

Co      0.0368  0.0252  0.0523
Cl      -1.0822  1.5989  -1.2199
Cl      1.1329  1.4140  1.3264
C       2.6531  -0.7105  -0.8581
C       2.1293  -1.9041  -0.0733
C       -2.5633  -1.3558  -0.4641
C       -2.3998  -1.1166  1.0304
N       1.4890  0.0969  -1.2923
N       1.0187  -1.4808  0.8413
N       -1.1977  -1.3791  -1.0869
N       -1.4024  -0.0489  1.3218
H       2.9152  -2.3796  0.4882
H       1.7169  -2.6433  -0.7510
H       -3.1217  -0.5662  -0.9358
H       -3.0900  -2.2914  -0.6292
H       1.7283  1.0636  -1.3988
H       1.1391  -0.2059  -2.1837
H       -1.8239  0.8624  1.2748
H       -1.0601  -0.1392  2.2568
H       -2.0495  -2.0222  1.5040
H       -3.3491  -0.8702  1.4819
H       0.4229  -2.2777  1.0300
H       1.4056  -1.1741  1.7264
H       3.2340  -1.0509  -1.7090
H       3.2901  -0.0871  -0.2423
H       -0.8656  -2.3180  -1.1712
H       -1.2607  -0.9932  -2.0130
