27

Co      -0.0715  -0.0677  -0.0136
Cl      -1.0884  1.6117  -1.2123
Cl      1.2218  1.5358  1.4299
C       2.7215  -0.7341  -0.8387
C       2.1647  -1.9344  -0.1038
C       -2.5831  -1.3426  -0.4408
C       -2.4404  -1.1510  1.0514
N       1.5475  0.0608  -1.3153
N       1.0828  -1.4646  0.8285
N       -1.1831  -1.2136  -0.9791
N       -1.4300  -0.0769  1.2364
H       2.9310  -2.4592  0.4561
H       1.7260  -2.6398  -0.7951
H       -3.2031  -0.5760  -0.8944
H       -2.9880  -2.3230  -0.6979
H       1.7554  1.0547  -1.2548
H       1.3406  -0.1273  -2.2813
H       -1.8533  0.8310  1.1369
H       -1.0506  -0.0837  2.1651
H       -2.0733  -2.0525  1.5218
H       -3.3707  -0.8857  1.5306
H       0.6399  -2.2646  1.2498
H       1.5193  -0.9394  1.5780
H       3.3499  -1.0413  -1.6611
H       3.3047  -0.1111  -0.1809
H       -0.7671  -2.1303  -1.0301
H       -1.2275  -0.8546  -1.9142
