27

Co      -0.0371  -0.0198  -0.0664
Cl      -1.0916  1.6046  -1.1977
Cl      1.2286  1.5419  1.4450
C       2.7915  -0.7318  -0.8172
C       2.2245  -2.0623  -0.1028
C       -2.5919  -1.3072  -0.4353
C       -2.4959  -1.2482  1.1074
N       1.5209  0.0825  -1.3733
N       1.0940  -1.5094  0.8452
N       -1.1649  -1.2873  -0.9640
N       -1.5834  -0.0297  1.3490
H       2.8250  -2.6859  0.6084
H       1.8241  -2.6995  -0.8907
H       -3.1062  -0.3731  -0.6919
H       -3.0490  -2.1566  -1.0109
H       1.6435  1.0957  -1.2928
H       1.1217  -0.1103  -2.2807
H       -2.0045  0.8644  1.1526
H       -1.1228  0.0381  2.2534
H       -2.0916  -2.1544  1.5300
H       -3.4276  -1.0238  1.6055
H       0.4729  -2.2131  1.2160
H       1.3796  -0.8737  1.6132
H       3.3389  -0.8148  -1.7785
H       3.3819  -0.1430  -0.1265
H       -0.6269  -2.1614  -0.8783
H       -1.1223  -0.9661  -1.9158
