27

Co      0.0086  0.0538  0.0264
Cl      -1.0493  1.5382  -1.1797
Cl      1.1159  1.3685  1.3028
C       2.6649  -0.7140  -0.8664
C       2.1475  -1.9294  -0.0668
C       -2.5069  -1.3106  -0.4743
C       -2.3751  -1.1195  1.0539
N       1.4533  0.0901  -1.2173
N       1.0144  -1.4174  0.7804
N       -1.1457  -1.3580  -1.1059
N       -1.4441  0.0042  1.3746
H       3.0064  -2.3873  0.4071
H       1.6716  -2.6676  -0.6981
H       -2.9442  -0.4647  -0.9853
H       -3.1797  -2.1812  -0.5595
H       1.7733  1.0355  -1.4195
H       1.2886  -0.2661  -2.1526
H       -1.9807  0.8630  1.3655
H       -1.1728  -0.0860  2.3384
H       -1.9268  -1.9756  1.5478
H       -3.3832  -1.0164  1.4421
H       0.4968  -2.2132  1.1079
H       1.5595  -1.1566  1.6058
H       3.3233  -1.1142  -1.6324
H       3.2258  -0.0239  -0.2477
H       -0.9305  -2.3445  -1.1723
H       -1.2810  -1.0787  -2.0670
