27

Co      0.0000  0.0083  0.0000
Cl      -1.0967  1.6314  -1.2350
Cl      1.1711  1.4644  1.3772
C       2.6780  -0.7290  -0.7983
C       2.1497  -1.9426  -0.1214
C       -2.5414  -1.3403  -0.4253
C       -2.4630  -1.1551  1.0569
N       1.5277  0.0409  -1.3392
N       1.0951  -1.5096  0.8451
N       -1.1610  -1.3246  -1.0197
N       -1.4852  -0.0843  1.3643
H       2.8422  -2.4602  0.5440
H       1.7948  -2.6538  -0.8613
H       -3.1703  -0.5458  -0.8044
H       -2.9335  -2.2927  -0.7907
H       1.6872  1.0312  -1.3581
H       1.0548  -0.2213  -2.2035
H       -1.8324  0.8573  1.2726
H       -1.0392  -0.1539  2.2637
H       -2.1789  -2.0993  1.5078
H       -3.4040  -0.8482  1.4968
H       0.4895  -2.2710  1.0944
H       1.3713  -0.9885  1.6762
H       3.2542  -0.8904  -1.7110
H       3.2890  -0.1749  -0.1011
H       -0.6656  -2.2047  -1.0352
H       -1.1687  -0.9206  -1.9388
