27

Co      0.0032  0.0014  0.0316
Cl      -1.1111  1.6525  -1.2521
Cl      1.1324  1.3851  1.3247
C       2.7002  -0.7045  -0.8279
C       2.1379  -1.9450  -0.1035
C       -2.4760  -1.3318  -0.4597
C       -2.4234  -1.1170  1.0820
N       1.4924  0.0514  -1.2669
N       1.1003  -1.4308  0.8503
N       -1.1253  -1.3537  -1.1397
N       -1.4889  -0.0090  1.4516
H       2.9863  -2.5324  0.2579
H       1.5502  -2.5629  -0.7801
H       -2.9233  -0.4894  -0.9762
H       -3.1427  -2.2054  -0.5482
H       1.7759  1.0034  -1.4933
H       1.3738  -0.3525  -2.2014
H       -1.9988  0.8656  1.4477
H       -1.2178  -0.1268  2.4229
H       -2.0333  -1.9731  1.6252
H       -3.4674  -0.9907  1.3787
H       0.6420  -2.2269  1.2712
H       1.7085  -1.1045  1.6084
H       3.4472  -1.0744  -1.5326
H       3.1741  -0.0070  -0.1508
H       -0.9189  -2.3471  -1.3124
H       -1.2963  -0.9783  -2.0643
