27

Co      -0.0566  -0.0213  -0.0527
Cl      -1.0892  1.6022  -1.1952
Cl      1.2262  1.5418  1.4400
C       2.7856  -0.7282  -0.8714
C       2.2142  -2.0258  -0.1250
C       -2.6068  -1.2944  -0.4318
C       -2.4792  -1.2272  1.0787
N       1.5482  0.0554  -1.3403
N       1.0432  -1.4999  0.8522
N       -1.1525  -1.2172  -0.8764
N       -1.5197  -0.0925  1.2380
H       2.9582  -2.5234  0.4993
H       1.7898  -2.7604  -0.7963
H       -3.1354  -0.4466  -0.8429
H       -3.0470  -2.2149  -0.8100
H       1.7402  1.0553  -1.2951
H       1.3262  -0.1404  -2.3003
H       -1.9996  0.7780  1.0499
H       -1.1660  -0.0019  2.1827
H       -2.0270  -2.1328  1.4712
H       -3.4011  -1.0504  1.6146
H       0.5623  -2.2797  1.2759
H       1.4887  -0.9907  1.6030
H       3.4984  -0.8824  -1.6802
H       3.2503  -0.0968  -0.1190
H       -0.7281  -2.1354  -0.7685
H       -1.1420  -1.0062  -1.8647
