27

Co      0.0018  0.0362  0.0017
Cl      -1.0665  1.5886  -1.2057
Cl      1.1383  1.4154  1.3488
C       2.6094  -0.7155  -0.7877
C       2.0880  -1.8796  -0.0805
C       -2.4798  -1.3148  -0.4546
C       -2.4320  -1.1578  1.0634
N       1.4893  0.0408  -1.3390
N       1.0480  -1.4873  0.7600
N       -1.0881  -1.2944  -0.9744
N       -1.4648  -0.0648  1.3697
H       2.9847  -2.3971  0.2837
H       1.6106  -2.5406  -0.7836
H       -2.9066  -0.4584  -0.9599
H       -3.1027  -2.1858  -0.6330
H       1.8259  0.9776  -1.6009
H       1.4178  -0.3981  -2.2734
H       -1.9873  0.8030  1.3959
H       -1.1649  -0.1831  2.3233
H       -2.0516  -2.0261  1.5967
H       -3.4559  -0.9986  1.3950
H       0.5718  -2.3197  1.0617
H       1.5716  -1.2350  1.6011
H       3.3455  -1.2253  -1.4478
H       3.1203  0.0087  -0.1701
H       -0.8182  -2.2621  -0.9298
H       -1.1853  -1.1216  -1.9705
