27

Co      -0.0609  0.0008  -0.0175
Cl      -1.0654  1.5568  -1.1782
Cl      1.1932  1.4788  1.3950
C       2.7579  -0.7086  -0.8609
C       2.1734  -1.9768  -0.1282
C       -2.5885  -1.3069  -0.4430
C       -2.4086  -1.1569  1.0438
N       1.5644  0.0902  -1.3709
N       1.0825  -1.5008  0.9465
N       -1.1996  -1.2941  -1.0342
N       -1.4767  -0.0327  1.2912
H       2.8399  -2.5288  0.5440
H       1.7545  -2.6829  -0.8370
H       -3.2334  -0.5101  -0.8073
H       -2.9712  -2.2646  -0.8015
H       1.6864  1.1023  -1.2637
H       1.1202  -0.0760  -2.2730
H       -1.8659  0.8865  1.1505
H       -1.0188  -0.0242  2.1864
H       -1.9929  -2.0908  1.4040
H       -3.3068  -0.9413  1.6151
H       0.5408  -2.2644  1.2951
H       1.4072  -0.9011  1.7109
H       3.3659  -0.7975  -1.7807
H       3.3259  -0.1611  -0.1172
H       -0.6985  -2.1764  -1.0285
H       -1.1770  -0.8931  -1.9555
