27

Co      -0.0220  -0.0690  -0.0059
Cl      -1.0852  1.6124  -1.2061
Cl      1.1945  1.5074  1.4133
C       2.6650  -0.6869  -0.8329
C       2.0887  -1.8902  -0.0992
C       -2.5409  -1.3067  -0.4480
C       -2.4027  -1.1483  1.0526
N       1.5255  0.0892  -1.3934
N       1.0284  -1.4925  0.8865
N       -1.1515  -1.2952  -1.0109
N       -1.4420  -0.0450  1.2796
H       2.8681  -2.4513  0.3940
H       1.6159  -2.5531  -0.8129
H       -3.0770  -0.4784  -0.8779
H       -3.0464  -2.2223  -0.7154
H       1.7182  1.0785  -1.3940
H       1.3042  -0.1665  -2.3357
H       -1.8783  0.8518  1.1417
H       -1.0931  -0.0308  2.2180
H       -2.0002  -2.0450  1.4998
H       -3.3496  -0.9463  1.5240
H       0.5404  -2.3052  1.2044
H       1.4481  -1.0631  1.6910
H       3.3407  -1.0262  -1.6051
H       3.2076  -0.0429  -0.1655
H       -0.7954  -2.2325  -1.0491
H       -1.1854  -0.9489  -1.9507
