27

Co      0.0067  0.0351  0.0215
Cl      -1.0615  1.5931  -1.2150
Cl      1.1367  1.4174  1.3372
C       2.6232  -0.7041  -0.8172
C       2.1306  -1.9377  -0.0930
C       -2.4818  -1.3451  -0.4648
C       -2.3868  -1.0928  1.0419
N       1.4220  0.0546  -1.2429
N       1.0130  -1.4662  0.7876
N       -1.1282  -1.4032  -1.1137
N       -1.3907  -0.0424  1.3993
H       2.9077  -2.3989  0.4984
H       1.7426  -2.6783  -0.7795
H       -3.0127  -0.5433  -0.9452
H       -3.0412  -2.2612  -0.6265
H       1.6508  1.0178  -1.4106
H       1.0665  -0.2989  -2.1203
H       -1.7991  0.8823  1.4307
H       -1.0058  -0.2047  2.3168
H       -2.0852  -2.0007  1.5490
H       -3.3674  -0.8350  1.4159
H       0.4215  -2.2384  1.0372
H       1.4105  -1.1129  1.6429
H       3.2413  -0.9485  -1.6657
H       3.1935  -0.0770  -0.1524
H       -0.7891  -2.3386  -1.1645
H       -1.2147  -1.0560  -2.0503
