27

Co      0.0082  0.0578  0.0068
Cl      -1.0629  1.5546  -1.1790
Cl      1.1262  1.3798  1.3207
C       2.5970  -0.7293  -0.7776
C       2.1067  -1.8758  -0.0826
C       -2.5303  -1.2809  -0.4511
C       -2.3765  -1.1635  1.0348
N       1.5039  0.0734  -1.3074
N       1.1293  -1.5029  0.8211
N       -1.1606  -1.3373  -1.0164
N       -1.4846  -0.0151  1.3220
H       2.9416  -2.3898  0.3715
H       1.6813  -2.5610  -0.8022
H       -3.0171  -0.4110  -0.8492
H       -3.1043  -2.1490  -0.7259
H       1.7964  1.0278  -1.4423
H       1.2223  -0.2610  -2.2073
H       -1.9722  0.8601  1.2564
H       -1.1212  -0.0629  2.2479
H       -1.9238  -2.0549  1.4576
H       -3.3444  -1.0376  1.5059
H       0.6069  -2.3080  1.1057
H       1.5329  -1.1066  1.6488
H       3.1967  -1.1319  -1.5874
H       3.2331  -0.1041  -0.1674
H       -0.8005  -2.2690  -0.9267
H       -1.1920  -1.1115  -1.9968
