27

Co      -0.0609  0.0063  -0.0146
Cl      -1.0737  1.5763  -1.1977
Cl      1.2071  1.5038  1.4117
C       2.7243  -0.7411  -0.8432
C       2.1743  -1.9448  -0.0983
C       -2.5937  -1.3577  -0.4452
C       -2.4546  -1.1569  1.0498
N       1.5718  0.0711  -1.3510
N       1.1088  -1.5144  0.8671
N       -1.2103  -1.2619  -1.0212
N       -1.4661  -0.0688  1.2959
H       2.9664  -2.4708  0.4216
H       1.7255  -2.6415  -0.7894
H       -3.2050  -0.5851  -0.9029
H       -3.0314  -2.3248  -0.6765
H       1.8153  1.0507  -1.3519
H       1.3414  -0.1630  -2.2958
H       -1.9074  0.8354  1.2738
H       -1.0600  -0.1499  2.2115
H       -2.0809  -2.0571  1.5173
H       -3.4017  -0.9215  1.5108
H       0.6414  -2.3255  1.2275
H       1.5369  -1.0422  1.6464
H       3.3674  -1.0649  -1.6500
H       3.3040  -0.1137  -0.1841
H       -0.7946  -2.1784  -1.0544
H       -1.2691  -0.9241  -1.9626
