27

Co      0.0463  -0.0019  0.0277
Cl      -1.1229  1.6636  -1.2523
Cl      1.1296  1.4047  1.3280
C       2.6135  -0.7263  -0.8215
C       2.1116  -1.8742  -0.0539
C       -2.5077  -1.3132  -0.4448
C       -2.4360  -1.1629  1.0753
N       1.5215  0.0983  -1.3277
N       1.0978  -1.5392  0.8449
N       -1.1369  -1.3382  -1.0374
N       -1.5103  -0.0330  1.3826
H       3.0469  -2.3844  0.2535
H       1.6019  -2.5389  -0.7350
H       -2.9177  -0.4359  -0.9295
H       -3.1785  -2.1631  -0.6090
H       1.8724  1.0392  -1.4963
H       1.4412  -0.2506  -2.2861
H       -2.0398  0.8220  1.3245
H       -1.2600  -0.0946  2.3600
H       -2.0182  -2.0164  1.6020
H       -3.4690  -1.0448  1.4080
H       0.6234  -2.3942  1.1007
H       1.6172  -1.3151  1.7047
H       3.2845  -1.2977  -1.5151
H       3.2104  -0.0197  -0.2568
H       -0.9192  -2.3265  -1.1005
H       -1.2620  -1.0675  -2.0019
