27

Co      -0.0028  0.0030  -0.0136
Cl      -1.0943  1.6248  -1.2284
Cl      1.1686  1.4664  1.3765
C       2.7320  -0.6915  -0.8290
C       2.1826  -2.0475  -0.0671
C       -2.5965  -1.3727  -0.4667
C       -2.4903  -1.1976  1.0803
N       1.4506  0.1102  -1.3578
N       1.0415  -1.5238  0.8824
N       -1.1321  -1.2026  -0.9018
N       -1.4117  -0.0954  1.2634
H       2.8937  -2.6681  0.4751
H       1.6948  -2.6694  -0.8180
H       -3.1411  -0.5339  -0.8788
H       -3.0139  -2.3016  -0.8610
H       1.6374  1.0989  -1.4074
H       1.2060  -0.1756  -2.2863
H       -1.8488  0.8117  1.2078
H       -1.0055  -0.1277  2.1820
H       -2.1714  -2.1000  1.5943
H       -3.4162  -0.8592  1.5486
H       0.4686  -2.2673  1.2428
H       1.4751  -1.0767  1.6734
H       3.3683  -0.9057  -1.6800
H       3.2580  -0.0231  -0.1646
H       -0.6658  -2.0966  -0.8460
H       -1.1208  -0.9255  -1.8666
