27

Co      -0.0611  -0.0544  -0.0215
Cl      -1.1223  1.6731  -1.2387
Cl      1.2188  1.5301  1.4210
C       2.7951  -0.7392  -0.8673
C       2.2438  -2.0423  -0.1334
C       -2.5701  -1.2903  -0.4396
C       -2.4404  -1.1944  1.0758
N       1.5141  0.0327  -1.2424
N       1.0609  -1.4650  0.8106
N       -1.1414  -1.2898  -0.9503
N       -1.4963  -0.0615  1.2781
H       2.9675  -2.5308  0.5282
H       1.8273  -2.7868  -0.7995
H       -3.0694  -0.4305  -0.8562
H       -3.0744  -2.1898  -0.7710
H       1.6880  1.0357  -1.2032
H       1.2537  -0.1548  -2.1955
H       -1.9611  0.8163  1.0873
H       -1.1589  0.0161  2.2317
H       -1.9961  -2.0948  1.4816
H       -3.3744  -1.0261  1.5821
H       0.5759  -2.2281  1.2650
H       1.5181  -0.9382  1.5479
H       3.4599  -0.8507  -1.7265
H       3.2916  -0.1244  -0.1242
H       -0.7616  -2.2239  -0.8989
H       -1.1519  -1.0259  -1.9190
