27

Co      -0.0245  -0.0739  -0.0009
Cl      -1.0828  1.6100  -1.2037
Cl      1.1921  1.5049  1.4084
C       2.6650  -0.6894  -0.8256
C       2.0936  -1.8951  -0.1041
C       -2.5557  -1.3067  -0.4504
C       -2.3978  -1.1508  1.0428
N       1.5034  0.0720  -1.3541
N       1.0185  -1.4557  0.8448
N       -1.1466  -1.2584  -0.9618
N       -1.4077  -0.0647  1.2231
H       2.8559  -2.4440  0.4283
H       1.6404  -2.5752  -0.8154
H       -3.1089  -0.4932  -0.8853
H       -3.0219  -2.2419  -0.7301
H       1.6888  1.0637  -1.3597
H       1.2747  -0.1837  -2.2940
H       -1.8390  0.8346  1.0656
H       -1.0661  -0.0234  2.1640
H       -2.0002  -2.0549  1.4826
H       -3.3226  -0.9193  1.5485
H       0.5306  -2.2537  1.1971
H       1.4457  -1.0042  1.6345
H       3.3309  -1.0016  -1.6149
H       3.2076  -0.0502  -0.1533
H       -0.7733  -2.1883  -0.9657
H       -1.1584  -0.9391  -1.9114
