27

Co      0.0690  0.0627  0.0185
Cl      -1.0860  1.6098  -1.2163
Cl      1.0901  1.3403  1.2862
C       2.6148  -0.6850  -0.8186
C       2.1143  -1.9496  -0.0838
C       -2.4866  -1.2817  -0.4642
C       -2.3997  -1.1617  1.0688
N       1.4090  0.0699  -1.2503
N       1.0240  -1.4683  0.8181
N       -1.0845  -1.3667  -1.0087
N       -1.4707  -0.0335  1.3752
H       2.9936  -2.4428  0.3199
H       1.6117  -2.6397  -0.7474
H       -2.8459  -0.3746  -0.9495
H       -3.1880  -2.1046  -0.6434
H       1.7194  1.0103  -1.5458
H       1.2401  -0.3746  -2.1575
H       -2.0185  0.8156  1.3077
H       -1.2304  -0.0740  2.3541
H       -1.9554  -2.0303  1.5454
H       -3.4135  -1.0669  1.4511
H       0.4822  -2.2581  1.1264
H       1.5858  -1.2471  1.6530
H       3.3627  -1.0250  -1.5314
H       3.0741  0.0211  -0.1372
H       -0.8773  -2.3556  -0.9611
H       -1.1770  -1.1934  -2.0064
