27

Co      -0.0531  -0.0463  -0.0395
Cl      -1.0671  1.5587  -1.1758
Cl      1.1950  1.4890  1.4027
C       2.7135  -0.7200  -0.8071
C       2.1571  -1.9641  -0.0541
C       -2.5839  -1.3175  -0.4550
C       -2.4467  -1.2058  1.0813
N       1.5076  0.1235  -1.3611
N       1.1008  -1.4722  0.8335
N       -1.1535  -1.1563  -0.9276
N       -1.4735  -0.0242  1.2423
H       2.8844  -2.6029  0.4496
H       1.6697  -2.5697  -0.8192
H       -3.1167  -0.4431  -0.8043
H       -3.0345  -2.2143  -0.8844
H       1.7270  1.1146  -1.3049
H       1.3448  -0.0810  -2.3362
H       -1.9504  0.8540  1.1159
H       -1.0736  0.0208  2.1631
H       -2.0233  -2.0773  1.5680
H       -3.3850  -0.9731  1.5706
H       0.6089  -2.2316  1.2767
H       1.5237  -0.9199  1.5757
H       3.2721  -1.0907  -1.6627
H       3.3514  -0.0613  -0.2269
H       -0.6915  -2.0563  -0.8896
H       -1.1572  -0.8635  -1.8882
