27

Co      -0.0082  -0.0638  -0.0038
Cl      -1.1228  1.6633  -1.2491
Cl      1.1942  1.4988  1.3974
C       2.7647  -0.7129  -0.8854
C       2.1928  -1.9971  -0.1092
C       -2.5637  -1.3343  -0.4318
C       -2.4729  -1.1588  1.0891
N       1.5259  0.0834  -1.2961
N       1.0460  -1.4639  0.8897
N       -1.1661  -1.2799  -1.0400
N       -1.4971  -0.0606  1.3341
H       2.9330  -2.5136  0.4894
H       1.7239  -2.7144  -0.7698
H       -3.1296  -0.5279  -0.8756
H       -3.0354  -2.2740  -0.6945
H       1.7014  1.0820  -1.2542
H       1.2514  -0.1094  -2.2446
H       -1.9234  0.8385  1.1619
H       -1.1743  -0.0315  2.2906
H       -2.1067  -2.0573  1.5604
H       -3.4335  -0.9312  1.5175
H       0.5306  -2.2360  1.2730
H       1.4988  -0.9925  1.6570
H       3.4245  -0.8950  -1.7279
H       3.2886  -0.0962  -0.1701
H       -0.8096  -2.2189  -1.1868
H       -1.2466  -0.8394  -1.9480
