27

Co      -0.0106  -0.0618  -0.0024
Cl      -1.1341  1.6814  -1.2501
Cl      1.2020  1.5032  1.4062
C       2.7818  -0.7119  -0.8506
C       2.1943  -2.0157  -0.1415
C       -2.5956  -1.3171  -0.4377
C       -2.4646  -1.1886  1.0758
N       1.5106  0.0320  -1.2706
N       1.0705  -1.4203  0.8514
N       -1.1680  -1.2705  -0.9670
N       -1.4902  -0.0802  1.2640
H       2.9036  -2.5781  0.4621
H       1.7074  -2.6988  -0.8271
H       -3.1341  -0.4845  -0.8624
H       -3.0657  -2.2423  -0.7469
H       1.6685  1.0331  -1.2917
H       1.2357  -0.2191  -2.1994
H       -1.9355  0.8076  1.0413
H       -1.1850  0.0101  2.2297
H       -2.0553  -2.0945  1.5021
H       -3.3962  -0.9795  1.5729
H       0.5687  -2.1673  1.3170
H       1.5614  -0.9028  1.5731
H       3.4866  -0.8259  -1.6795
H       3.2441  -0.0932  -0.0859
H       -0.8047  -2.2089  -1.0109
H       -1.1991  -0.9186  -1.9053
