27

Co      0.0304  -0.0008  0.0467
Cl      -1.0911  1.6339  -1.2305
Cl      1.1414  1.4314  1.3515
C       2.6110  -0.7025  -0.8004
C       2.0646  -1.8471  -0.0813
C       -2.5074  -1.3308  -0.4708
C       -2.3988  -1.1383  1.0413
N       1.4845  0.0409  -1.3348
N       1.0151  -1.4588  0.7569
N       -1.1295  -1.3717  -1.0236
N       -1.4185  -0.0568  1.3362
H       2.9389  -2.3898  0.2874
H       1.5718  -2.4937  -0.7930
H       -2.9223  -0.4746  -0.9864
H       -3.1738  -2.1960  -0.5935
H       1.7955  0.9812  -1.6186
H       1.3804  -0.4195  -2.2520
H       -1.9240  0.8168  1.3232
H       -1.1581  -0.1535  2.3055
H       -2.0119  -2.0067  1.5662
H       -3.4033  -0.9705  1.4062
H       0.5076  -2.2929  1.0013
H       1.5322  -1.2640  1.6308
H       3.3255  -1.2416  -1.4677
H       3.1476  0.0240  -0.2048
H       -0.9145  -2.3591  -1.0395
H       -1.2201  -1.1401  -2.0001
