27

Co      -0.0548  -0.0227  -0.0156
Cl      -1.0954  1.6501  -1.2341
Cl      1.1983  1.5127  1.4018
C       2.7469  -0.7204  -0.8384
C       2.2400  -2.0781  -0.0705
C       -2.5561  -1.3511  -0.4796
C       -2.4288  -1.1721  1.0728
N       1.4154  0.0867  -1.2521
N       1.0295  -1.5135  0.7937
N       -1.1225  -1.3054  -0.9762
N       -1.3929  -0.0472  1.3005
H       2.9373  -2.6267  0.5701
H       1.8256  -2.7636  -0.8014
H       -3.0401  -0.4763  -0.8875
H       -3.0749  -2.2350  -0.8367
H       1.5969  1.0804  -1.2643
H       1.1500  -0.1476  -2.1916
H       -1.8342  0.8572  1.2710
H       -0.9693  -0.1006  2.2143
H       -2.0782  -2.0623  1.5763
H       -3.3630  -0.8814  1.5331
H       0.4612  -2.2499  1.1735
H       1.4394  -1.0378  1.5854
H       3.3139  -0.8894  -1.7547
H       3.3202  -0.0648  -0.1958
H       -0.6904  -2.2141  -0.8939
H       -1.1195  -1.0573  -1.9503
