27

Co      -0.0728  -0.0365  -0.0007
Cl      -1.1011  1.6208  -1.2099
Cl      1.1850  1.4626  1.3826
C       2.8241  -0.7115  -0.8109
C       2.1940  -2.0224  -0.1213
C       -2.5899  -1.2903  -0.4620
C       -2.4181  -1.2150  1.0656
N       1.5456  0.0696  -1.3793
N       1.1152  -1.4478  0.8719
N       -1.1472  -1.2353  -0.9271
N       -1.4874  -0.0131  1.2639
H       2.7540  -2.7482  0.5415
H       1.7161  -2.5897  -0.9372
H       -3.1410  -0.3898  -0.7358
H       -2.9985  -2.1752  -1.0071
H       1.6274  1.0905  -1.3086
H       1.1534  -0.1499  -2.2808
H       -1.9071  0.8873  1.0641
H       -1.0331  0.0733  2.1671
H       -1.9707  -2.1302  1.4459
H       -3.3062  -0.9931  1.6575
H       0.5490  -2.1558  1.3159
H       1.4566  -0.7797  1.5936
H       3.3787  -0.8192  -1.7635
H       3.4140  -0.1288  -0.1185
H       -0.5982  -2.1027  -0.8165
H       -1.0427  -0.9043  -1.8731
