27

Co      0.0252  0.0682  -0.0078
Cl      -1.0486  1.5596  -1.1980
Cl      1.1238  1.3956  1.3267
C       2.6163  -0.7028  -0.8350
C       2.1369  -1.9597  -0.0682
C       -2.4797  -1.3440  -0.4602
C       -2.4382  -1.1241  1.0731
N       1.4086  0.0734  -1.2420
N       0.9977  -1.4758  0.7830
N       -1.0973  -1.3234  -1.0521
N       -1.4311  -0.0622  1.4060
H       3.0233  -2.3906  0.3943
H       1.6879  -2.7037  -0.7071
H       -2.9401  -0.5251  -1.0016
H       -3.0942  -2.2420  -0.5702
H       1.7337  1.0129  -1.4905
H       1.2547  -0.3256  -2.1683
H       -1.9318  0.8211  1.4692
H       -1.1231  -0.2224  2.3553
H       -2.1068  -1.9975  1.6299
H       -3.4642  -0.9190  1.3801
H       0.4644  -2.2716  1.0855
H       1.5306  -1.2333  1.6251
H       3.3357  -1.0548  -1.5661
H       3.1052  0.0031  -0.1762
H       -0.8402  -2.2924  -1.0906
H       -1.2456  -1.0815  -2.0252
