27

Co      0.0220  0.0750  0.0029
Cl      -1.0826  1.6175  -1.2279
Cl      1.1138  1.3713  1.3107
C       2.6412  -0.7087  -0.8107
C       2.1553  -1.9858  -0.0925
C       -2.4750  -1.3175  -0.4606
C       -2.4333  -1.1499  1.0744
N       1.4202  0.0407  -1.2355
N       1.0522  -1.4892  0.7927
N       -1.0761  -1.3399  -1.0110
N       -1.4601  -0.0607  1.4095
H       3.0357  -2.4640  0.3326
H       1.6733  -2.6863  -0.7541
H       -2.8831  -0.4544  -0.9795
H       -3.1241  -2.1797  -0.6172
H       1.7380  0.9803  -1.5250
H       1.2700  -0.3962  -2.1508
H       -1.9848  0.8090  1.4449
H       -1.1639  -0.1913  2.3672
H       -2.0586  -2.0249  1.5966
H       -3.4586  -0.9943  1.4031
H       0.5404  -2.2810  1.1431
H       1.6174  -1.2243  1.6055
H       3.3967  -1.0196  -1.5266
H       3.0872  -0.0038  -0.1168
H       -0.8231  -2.3126  -0.9685
H       -1.1892  -1.1659  -2.0062
