27

Co      0.0552  0.0337  0.0350
Cl      -1.0807  1.6034  -1.2236
Cl      1.1240  1.3865  1.3347
C       2.6217  -0.6948  -0.7767
C       2.0433  -1.8485  -0.0989
C       -2.4757  -1.3451  -0.4574
C       -2.4459  -1.1331  1.0711
N       1.4967  0.0220  -1.3527
N       1.0556  -1.4077  0.7727
N       -1.1292  -1.3752  -1.1073
N       -1.4992  -0.0418  1.4570
H       2.8998  -2.4576  0.2269
H       1.4863  -2.4330  -0.8270
H       -2.9029  -0.4904  -0.9663
H       -3.1581  -2.2027  -0.5624
H       1.8127  0.9519  -1.7300
H       1.3772  -0.5237  -2.2411
H       -2.0031  0.8354  1.4744
H       -1.2409  -0.1920  2.4277
H       -2.0970  -1.9946  1.6407
H       -3.5028  -0.9804  1.3328
H       0.5305  -2.2122  1.0616
H       1.6083  -1.1879  1.6107
H       3.3875  -1.2042  -1.4131
H       3.1060  0.0331  -0.1406
H       -0.9291  -2.3681  -1.2430
H       -1.2923  -1.0448  -2.0477
