27

Co      -0.0683  -0.0288  -0.0004
Cl      -1.1044  1.6406  -1.2346
Cl      1.1973  1.4941  1.3918
C       2.7630  -0.7224  -0.8738
C       2.2223  -2.0236  -0.1109
C       -2.5953  -1.3501  -0.4540
C       -2.4319  -1.1431  1.0478
N       1.5124  0.0752  -1.2676
N       1.0822  -1.5029  0.8999
N       -1.1760  -1.2373  -0.9817
N       -1.3962  -0.0824  1.2375
H       2.9821  -2.5285  0.4760
H       1.7644  -2.7540  -0.7681
H       -3.2160  -0.5939  -0.9334
H       -2.9948  -2.3412  -0.6869
H       1.6991  1.0743  -1.2080
H       1.2510  -0.0988  -2.2243
H       -1.8217  0.8297  1.1665
H       -1.0059  -0.1089  2.1629
H       -2.0609  -2.0562  1.4927
H       -3.3442  -0.8717  1.5630
H       0.6255  -2.2889  1.3409
H       1.5555  -0.9870  1.6358
H       3.4205  -0.8793  -1.7303
H       3.2861  -0.1114  -0.1518
H       -0.7574  -2.1517  -1.0009
H       -1.2047  -0.8988  -1.9232
