27

Co      0.0662  0.0136  0.0262
Cl      -1.0765  1.5942  -1.2206
Cl      1.0771  1.3231  1.2740
C       2.5604  -0.6919  -0.7895
C       2.0540  -1.8521  -0.0602
C       -2.4355  -1.3029  -0.4444
C       -2.4205  -1.1232  1.0805
N       1.4385  0.0808  -1.2746
N       1.0456  -1.4222  0.7844
N       -1.0638  -1.2697  -1.0374
N       -1.4646  -0.0333  1.4085
H       2.9508  -2.3661  0.2917
H       1.5464  -2.5170  -0.7433
H       -2.8798  -0.4584  -0.9434
H       -3.0595  -2.1794  -0.5981
H       1.7694  1.0160  -1.5288
H       1.3210  -0.3414  -2.2040
H       -1.9689  0.8392  1.3673
H       -1.2195  -0.1177  2.3819
H       -2.0678  -1.9852  1.6479
H       -3.4689  -0.9532  1.3590
H       0.5361  -2.2284  1.0951
H       1.5868  -1.1718  1.6164
H       3.2477  -1.2024  -1.4902
H       3.1182  0.0115  -0.1947
H       -0.8356  -2.2475  -1.1476
H       -1.2160  -0.9540  -1.9853
