27

Co      -0.0096  -0.0253  -0.0370
Cl      -1.1009  1.6139  -1.2031
Cl      1.2164  1.5360  1.4322
C       2.7758  -0.7184  -0.8793
C       2.1926  -2.0062  -0.1191
C       -2.6323  -1.3002  -0.4299
C       -2.4929  -1.2390  1.0787
N       1.5482  0.0652  -1.3579
N       1.0178  -1.4901  0.8581
N       -1.1720  -1.2328  -0.8686
N       -1.5275  -0.1043  1.2203
H       2.9328  -2.5077  0.5032
H       1.7644  -2.7389  -0.7924
H       -3.1511  -0.4446  -0.8351
H       -3.0803  -2.2149  -0.8139
H       1.7382  1.0632  -1.3382
H       1.3047  -0.1522  -2.3042
H       -2.0055  0.7623  0.9793
H       -1.2130  0.0236  2.1808
H       -2.0407  -2.1465  1.4672
H       -3.4090  -1.0563  1.6264
H       0.4957  -2.2679  1.2230
H       1.4515  -1.0358  1.6422
H       3.4866  -0.8961  -1.6821
H       3.2483  -0.0831  -0.1366
H       -0.7712  -2.1589  -0.7861
H       -1.1577  -1.0003  -1.8509
