27

Co      0.0217  0.0193  0.0058
Cl      -1.0762  1.5789  -1.2122
Cl      1.0953  1.3314  1.2837
C       2.6551  -0.6972  -0.8504
C       2.1237  -1.9275  -0.0666
C       -2.4429  -1.2970  -0.4437
C       -2.4265  -1.1209  1.1019
N       1.4791  0.1149  -1.2722
N       1.0707  -1.4452  0.8754
N       -1.0854  -1.2757  -1.1122
N       -1.5184  0.0102  1.4644
H       3.0070  -2.4467  0.3031
H       1.5684  -2.6009  -0.7091
H       -2.8979  -0.4515  -0.9402
H       -3.0808  -2.1715  -0.5763
H       1.7911  1.0641  -1.4245
H       1.3676  -0.2171  -2.2329
H       -2.0445  0.8721  1.4277
H       -1.2534  -0.0733  2.4345
H       -2.0212  -1.9705  1.6455
H       -3.4853  -1.0162  1.3845
H       0.6000  -2.2479  1.2635
H       1.6512  -1.1292  1.6536
H       3.3612  -1.1080  -1.5756
H       3.1781  -0.0077  -0.2085
H       -0.8597  -2.2589  -1.2877
H       -1.2699  -0.8982  -2.0383
