27

Co      0.0326  0.0257  0.0661
Cl      -1.1075  1.6324  -1.2446
Cl      1.1073  1.3553  1.2972
C       2.7240  -0.6996  -0.8460
C       2.1134  -1.9097  -0.1013
C       -2.5332  -1.3406  -0.4638
C       -2.4446  -1.1460  1.0631
N       1.5318  0.0476  -1.3249
N       1.0510  -1.4040  0.8312
N       -1.1374  -1.2905  -1.0250
N       -1.4646  -0.0574  1.3608
H       2.9357  -2.5118  0.2818
H       1.5342  -2.5283  -0.7884
H       -3.0073  -0.5203  -0.9878
H       -3.1240  -2.2475  -0.5883
H       1.8128  0.9969  -1.5918
H       1.4031  -0.3970  -2.2419
H       -1.9786  0.8126  1.3130
H       -1.2272  -0.1275  2.3430
H       -2.0478  -2.0180  1.5786
H       -3.4485  -0.9856  1.4356
H       0.5532  -2.2065  1.1784
H       1.6426  -1.1526  1.6353
H       3.4781  -1.1275  -1.5291
H       3.2050  0.0078  -0.1841
H       -0.9033  -2.2716  -1.1364
H       -1.2454  -0.9589  -1.9662
