27

Co      -0.0750  -0.0544  -0.0234
Cl      -1.1021  1.6357  -1.2122
Cl      1.2391  1.5637  1.4506
C       2.7970  -0.7250  -0.8763
C       2.2123  -2.0128  -0.1317
C       -2.6089  -1.3045  -0.4500
C       -2.4322  -1.1959  1.0566
N       1.5434  0.0457  -1.3185
N       1.0358  -1.4811  0.8431
N       -1.1743  -1.2789  -0.9335
N       -1.4656  -0.0728  1.2221
H       2.9379  -2.5317  0.4991
H       1.7765  -2.7350  -0.8097
H       -3.1354  -0.4648  -0.8772
H       -3.0848  -2.2250  -0.7665
H       1.7117  1.0511  -1.2697
H       1.3104  -0.1500  -2.2750
H       -1.9304  0.8075  1.0476
H       -1.1122  0.0022  2.1669
H       -1.9736  -2.0997  1.4447
H       -3.3406  -1.0164  1.6142
H       0.5648  -2.2646  1.2684
H       1.4866  -0.9746  1.5935
H       3.4902  -0.8850  -1.6981
H       3.2796  -0.0952  -0.1360
H       -0.7813  -2.2088  -0.8606
H       -1.1611  -1.0306  -1.9079
