27

Co      0.0530  -0.0146  0.0176
Cl      -1.0715  1.5886  -1.2094
Cl      1.1127  1.3830  1.3232
C       2.5384  -0.6679  -0.8003
C       2.0157  -1.8214  -0.0499
C       -2.4595  -1.3189  -0.4560
C       -2.3952  -1.1076  1.0655
N       1.4623  0.1220  -1.3660
N       1.0395  -1.4916  0.8807
N       -1.1089  -1.3158  -1.0935
N       -1.4371  -0.0176  1.3869
H       2.9463  -2.3743  0.2135
H       1.4619  -2.4468  -0.7437
H       -2.9138  -0.4816  -0.9644
H       -3.1073  -2.1968  -0.5623
H       1.7859  1.0627  -1.5690
H       1.3851  -0.2771  -2.3124
H       -1.9352  0.8604  1.3725
H       -1.1667  -0.1224  2.3490
H       -2.0251  -1.9637  1.6245
H       -3.4328  -0.9447  1.3702
H       0.5643  -2.3367  1.1482
H       1.5743  -1.2634  1.7276
H       3.2548  -1.2410  -1.4574
H       3.0878  0.0518  -0.2151
H       -0.8995  -2.3023  -1.2350
H       -1.2650  -0.9721  -2.0318
