27

Co      0.0022  0.0149  0.0223
Cl      -1.0737  1.5764  -1.2098
Cl      1.0929  1.3314  1.2788
C       2.5852  -0.7258  -0.8189
C       2.0812  -1.8151  -0.1106
C       -2.4492  -1.2660  -0.4072
C       -2.3948  -1.0999  1.0464
N       1.5571  0.0610  -1.2846
N       1.1115  -1.4654  0.8634
N       -1.0998  -1.2391  -1.0308
N       -1.4877  -0.0498  1.3687
H       2.9642  -2.2206  0.3679
H       1.6732  -2.5954  -0.7414
H       -3.0636  -0.5221  -0.8924
H       -2.8973  -2.2422  -0.5721
H       1.8367  1.0217  -1.3295
H       1.2677  -0.1920  -2.2101
H       -1.9184  0.8521  1.2725
H       -1.1666  -0.1063  2.3098
H       -2.0230  -2.0157  1.4892
H       -3.3920  -0.9401  1.4345
H       0.6622  -2.3100  1.1696
H       1.5417  -1.0520  1.6689
H       3.2414  -1.1081  -1.5944
H       3.1905  -0.1480  -0.1482
H       -0.7551  -2.1728  -1.1243
H       -1.2042  -0.8529  -1.9538
