27

Co      0.0664  -0.0040  -0.0047
Cl      -1.0942  1.6067  -1.2063
Cl      1.1359  1.4084  1.3409
C       2.6141  -0.6881  -0.8736
C       2.0930  -1.8863  -0.1138
C       -2.4906  -1.2492  -0.4251
C       -2.3991  -1.1410  1.0749
N       1.4908  0.0769  -1.2626
N       1.0200  -1.4598  0.8890
N       -1.1369  -1.3916  -1.0969
N       -1.5482  -0.0223  1.3837
H       3.0365  -2.2808  0.2905
H       1.5942  -2.6620  -0.6887
H       -2.9003  -0.3884  -0.9403
H       -3.1950  -2.1039  -0.4993
H       1.7989  1.0296  -1.4239
H       1.3360  -0.2517  -2.2077
H       -2.0894  0.8169  1.1931
H       -1.3732  0.0208  2.3916
H       -1.9014  -2.0090  1.4975
H       -3.4281  -1.1375  1.4562
H       0.5601  -2.2986  1.2099
H       1.5966  -1.2118  1.7009
H       3.4244  -1.0258  -1.5384
H       3.0451  -0.0206  -0.1337
H       -1.0098  -2.4150  -1.2138
H       -1.3057  -1.0912  -2.0518
