27

Co      -0.0088  -0.0321  0.0028
Cl      -1.1212  1.6520  -1.2372
Cl      1.1891  1.4793  1.3915
C       2.8258  -0.7160  -0.8293
C       2.2062  -2.0456  -0.1050
C       -2.6123  -1.3421  -0.4608
C       -2.4933  -1.2268  1.0947
N       1.5047  0.0545  -1.3213
N       1.0747  -1.4037  0.8059
N       -1.1640  -1.2436  -0.9431
N       -1.5080  -0.0541  1.2927
H       2.8405  -2.7357  0.4869
H       1.6830  -2.6248  -0.8747
H       -3.1006  -0.4439  -0.8215
H       -3.1065  -2.2170  -0.8841
H       1.6651  1.0500  -1.3993
H       1.2544  -0.2580  -2.2391
H       -1.9777  0.8249  1.1161
H       -1.1678  0.0103  2.2451
H       -2.0889  -2.1111  1.5729
H       -3.4323  -0.9918  1.5726
H       0.5025  -2.1103  1.2580
H       1.5415  -0.8931  1.5438
H       3.4560  -0.9065  -1.6908
H       3.3496  -0.0567  -0.1499
H       -0.7491  -2.1631  -0.9452
H       -1.1627  -0.9149  -1.8903
