27

Co      0.0757  0.0547  0.0144
Cl      -1.0693  1.5618  -1.2064
Cl      1.1130  1.3687  1.3088
C       2.6330  -0.6965  -0.8393
C       2.1174  -1.9361  -0.0673
C       -2.5442  -1.3709  -0.4523
C       -2.4714  -1.1304  1.0761
N       1.4382  0.0907  -1.2462
N       1.0433  -1.4191  0.8329
N       -1.1689  -1.2861  -1.0838
N       -1.4579  -0.0660  1.3709
H       2.9923  -2.4319  0.3432
H       1.5920  -2.6337  -0.7077
H       -3.0617  -0.5821  -0.9868
H       -3.1155  -2.3004  -0.5401
H       1.7622  1.0313  -1.4950
H       1.2727  -0.3118  -2.1662
H       -1.9542  0.8155  1.3572
H       -1.2001  -0.1714  2.3414
H       -2.1360  -2.0002  1.6385
H       -3.4890  -0.9114  1.4009
H       0.5083  -2.1989  1.1736
H       1.6158  -1.1559  1.6413
H       3.3474  -1.0750  -1.5701
H       3.1418  -0.0017  -0.1859
H       -0.9313  -2.2624  -1.2597
H       -1.3497  -0.9172  -2.0145
