27

Co      -0.0170  -0.0060  0.0151
Cl      -1.0974  1.6060  -1.2125
Cl      1.1632  1.4417  1.3575
C       2.7010  -0.7313  -0.8314
C       2.1505  -1.9119  -0.1047
C       -2.5835  -1.3034  -0.4321
C       -2.4150  -1.1671  1.0398
N       1.5835  0.0929  -1.3682
N       1.1235  -1.5228  0.9123
N       -1.1998  -1.2959  -1.0063
N       -1.4918  -0.0400  1.2878
H       2.8585  -2.4511  0.5132
H       1.7584  -2.6152  -0.8339
H       -3.2108  -0.4928  -0.7806
H       -2.9796  -2.2479  -0.8118
H       1.7500  1.0915  -1.2809
H       1.1407  -0.0833  -2.2657
H       -1.8792  0.8753  1.1205
H       -1.0661  -0.0221  2.1945
H       -2.0126  -2.0988  1.4194
H       -3.3251  -0.9443  1.5873
H       0.5659  -2.3109  1.1762
H       1.4092  -0.9824  1.7289
H       3.2363  -0.9707  -1.7551
H       3.3764  -0.1877  -0.1762
H       -0.7102  -2.1801  -0.9992
H       -1.1712  -0.8970  -1.9291
