27

Co      -0.0495  0.0019  -0.0136
Cl      -1.0742  1.5978  -1.2052
Cl      1.1645  1.4427  1.3634
C       2.7260  -0.7043  -0.8236
C       2.1798  -2.0082  -0.1438
C       -2.5254  -1.2927  -0.4410
C       -2.4028  -1.1458  1.0502
N       1.4800  0.0420  -1.2796
N       1.0617  -1.4599  0.8632
N       -1.1167  -1.2862  -0.9869
N       -1.4400  -0.0561  1.3117
H       2.8243  -2.5265  0.5924
H       1.8058  -2.7388  -0.8562
H       -3.1423  -0.4875  -0.8147
H       -2.9063  -2.2430  -0.8267
H       1.5852  1.0511  -1.2468
H       0.9981  -0.1760  -2.1577
H       -1.8093  0.8751  1.1801
H       -0.9876  -0.0600  2.2092
H       -2.0454  -2.0928  1.4357
H       -3.3106  -0.8850  1.5776
H       0.4911  -2.1883  1.2483
H       1.3943  -0.8478  1.6179
H       3.3407  -0.6936  -1.7679
H       3.2538  -0.1618  -0.0451
H       -0.6087  -2.1623  -0.9264
H       -1.0838  -0.9356  -1.9243
