27

Co      -0.0007  0.0026  0.0061
Cl      -1.0938  1.6383  -1.2280
Cl      1.1195  1.3856  1.3221
C       2.6270  -0.6826  -0.8105
C       2.1022  -1.9228  -0.0986
C       -2.4380  -1.2565  -0.4504
C       -2.3673  -1.1391  1.0664
N       1.4810  0.0896  -1.3540
N       1.0609  -1.5473  0.9094
N       -1.0616  -1.3727  -1.0432
N       -1.4800  -0.0002  1.4165
H       2.9130  -2.4640  0.3569
H       1.6324  -2.5838  -0.8135
H       -2.8735  -0.3599  -0.8627
H       -3.0551  -2.0969  -0.7361
H       1.6975  1.0619  -1.4490
H       1.2055  -0.2298  -2.2654
H       -1.9444  0.8858  1.3377
H       -1.1208  -0.0514  2.3488
H       -1.9465  -2.0335  1.5047
H       -3.3633  -1.0196  1.4705
H       0.5385  -2.3569  1.1851
H       1.4827  -1.1710  1.7389
H       3.3097  -0.9715  -1.5928
H       3.1502  -0.0448  -0.1243
H       -0.7320  -2.3160  -1.0000
H       -1.0971  -1.0995  -2.0055
