27

Co      0.0351  0.0277  0.0641
Cl      -1.1100  1.6348  -1.2471
Cl      1.1097  1.3578  1.3021
C       2.6646  -0.7248  -0.7903
C       2.0809  -1.8379  -0.1001
C       -2.5098  -1.3316  -0.4420
C       -2.4391  -1.1435  1.0552
N       1.5865  0.0470  -1.3869
N       1.1297  -1.4615  0.8403
N       -1.1601  -1.3426  -1.0757
N       -1.5183  -0.0349  1.4234
H       2.8672  -2.4556  0.3171
H       1.5806  -2.4397  -0.8536
H       -3.0393  -0.5027  -0.8724
H       -3.0578  -2.2311  -0.6704
H       1.8456  1.0005  -1.5832
H       1.3006  -0.3609  -2.2639
H       -1.9601  0.8645  1.3730
H       -1.1878  -0.1414  2.3656
H       -2.0825  -2.0387  1.5529
H       -3.4450  -0.9598  1.4155
H       0.5812  -2.2716  1.0727
H       1.5445  -1.1216  1.6900
H       3.2948  -1.1933  -1.5547
H       3.2900  -0.0896  -0.1844
H       -0.8239  -2.2828  -1.1843
H       -1.2369  -0.9333  -1.9902
