27

Co      -0.0018  -0.0239  -0.0023
Cl      -1.1323  1.6754  -1.2483
Cl      1.2002  1.4951  1.4026
C       2.7058  -0.7347  -0.8091
C       2.1790  -1.9720  -0.1179
C       -2.5975  -1.3341  -0.4400
C       -2.4510  -1.1798  1.0601
N       1.5218  0.0447  -1.2824
N       1.1519  -1.4982  0.8659
N       -1.2112  -1.3361  -1.0301
N       -1.5007  -0.0619  1.2985
H       2.9662  -2.5262  0.3783
H       1.7005  -2.6378  -0.8227
H       -3.1273  -0.4943  -0.8609
H       -3.1219  -2.2401  -0.7061
H       1.7494  1.0254  -1.3398
H       1.2549  -0.2298  -2.2039
H       -1.9530  0.8277  1.1672
H       -1.1583  -0.0598  2.2455
H       -2.0455  -2.0768  1.5055
H       -3.4036  -0.9867  1.5250
H       0.6632  -2.2802  1.2648
H       1.6128  -1.0163  1.6218
H       3.3642  -0.9796  -1.6277
H       3.2511  -0.1153  -0.1144
H       -0.8571  -2.2769  -1.0601
H       -1.2680  -1.0062  -1.9749
