27

Co      -0.0131  -0.0064  0.0375
Cl      -1.0884  1.6126  -1.2232
Cl      1.1502  1.4163  1.3494
C       2.6427  -0.7204  -0.7664
C       2.0837  -1.8536  -0.1103
C       -2.5209  -1.3369  -0.4532
C       -2.4000  -1.1211  1.0352
N       1.5321  0.0295  -1.3263
N       1.1343  -1.4307  0.8086
N       -1.1710  -1.3212  -1.0755
N       -1.4433  -0.0370  1.3454
H       2.8636  -2.4624  0.3329
H       1.5949  -2.4668  -0.8604
H       -3.0851  -0.5355  -0.8965
H       -3.0378  -2.2635  -0.6554
H       1.7735  0.9929  -1.4825
H       1.2690  -0.3459  -2.2194
H       -1.8711  0.8742  1.3159
H       -1.0776  -0.1399  2.2728
H       -2.0454  -2.0183  1.5282
H       -3.3761  -0.9012  1.4398
H       0.6393  -2.2256  1.1543
H       1.5739  -0.9921  1.5958
H       3.2746  -1.1255  -1.5494
H       3.2471  -0.0898  -0.1384
H       -0.8151  -2.2549  -1.1551
H       -1.2430  -0.9377  -1.9987
