27

Co      0.0012  0.0288  0.0114
Cl      -1.0672  1.5884  -1.2117
Cl      1.0963  1.3548  1.2937
C       2.6337  -0.6933  -0.8434
C       2.1075  -1.9055  -0.0749
C       -2.4209  -1.2718  -0.4433
C       -2.3927  -1.1264  1.0753
N       1.5017  0.1128  -1.3642
N       1.0175  -1.5376  0.8839
N       -1.0474  -1.3250  -1.0433
N       -1.4839  -0.0076  1.4522
H       2.9172  -2.3921  0.4333
H       1.6827  -2.6178  -0.7661
H       -2.9008  -0.4144  -0.8759
H       -2.9874  -2.1464  -0.7150
H       1.7377  1.0796  -1.4377
H       1.2139  -0.1797  -2.2817
H       -1.9353  0.8866  1.4135
H       -1.1162  -0.1022  2.3777
H       -2.0181  -2.0226  1.5494
H       -3.4029  -0.9700  1.4360
H       0.4611  -2.3538  1.0915
H       1.4011  -1.2055  1.7571
H       3.2709  -1.0362  -1.6455
H       3.2131  -0.0587  -0.1998
H       -0.6928  -2.2561  -1.0502
H       -1.1048  -1.0068  -1.9905
