27

Co      -0.0012  -0.0301  -0.0105
Cl      -1.0869  1.6210  -1.2189
Cl      1.2018  1.5170  1.4166
C       2.7259  -0.6838  -0.8186
C       2.1687  -2.0391  -0.0818
C       -2.6034  -1.3873  -0.4807
C       -2.4546  -1.1679  1.0681
N       1.4072  0.0844  -1.3005
N       1.0187  -1.4484  0.8283
N       -1.1771  -1.2970  -1.0100
N       -1.3852  -0.0675  1.2692
H       2.8438  -2.6724  0.5040
H       1.6792  -2.6553  -0.8367
H       -3.1344  -0.5427  -0.8952
H       -3.0912  -2.2984  -0.8033
H       1.5696  1.0761  -1.3903
H       1.1304  -0.2337  -2.2095
H       -1.8071  0.8469  1.2047
H       -0.9922  -0.1035  2.1936
H       -2.1343  -2.0620  1.5891
H       -3.3802  -0.8348  1.5317
H       0.4260  -2.1627  1.2193
H       1.4608  -0.9806  1.6027
H       3.3516  -0.8553  -1.6890
H       3.2463  -0.0165  -0.1450
H       -0.7678  -2.2132  -1.0356
H       -1.2025  -0.9546  -1.9521
