27

Co      0.0110  0.0592  0.0195
Cl      -1.0857  1.5910  -1.2114
Cl      1.1014  1.3301  1.2890
C       2.6059  -0.7141  -0.7863
C       2.1002  -1.8855  -0.0705
C       -2.4937  -1.3016  -0.4592
C       -2.3949  -1.1420  1.0584
N       1.5090  0.0907  -1.3142
N       1.1716  -1.5159  0.8905
N       -1.1354  -1.3101  -1.0683
N       -1.4929  -0.0009  1.3900
H       3.0403  -2.4617  0.1629
H       1.5208  -2.4927  -0.7644
H       -2.9320  -0.4397  -0.9450
H       -3.1527  -2.1619  -0.5927
H       1.8706  1.0245  -1.5392
H       1.4292  -0.3108  -2.2577
H       -2.0450  0.8540  1.4136
H       -1.1938  -0.1185  2.3433
H       -1.9407  -1.9948  1.5615
H       -3.4264  -1.0620  1.4163
H       0.7496  -2.3552  1.2651
H       1.7555  -1.2112  1.6718
H       3.3202  -1.2362  -1.4657
H       3.1551  -0.0148  -0.1770
H       -0.8926  -2.2879  -1.0931
H       -1.2646  -1.0651  -2.0386
