27

Co      0.0746  0.0731  0.0025
Cl      -1.0765  1.5943  -1.2117
Cl      1.1267  1.3990  1.3374
C       2.5642  -0.7148  -0.7597
C       2.0794  -1.8820  -0.0885
C       -2.4989  -1.3237  -0.4399
C       -2.4431  -1.1608  1.0618
N       1.4702  0.0484  -1.3353
N       1.0852  -1.5166  0.8015
N       -1.1464  -1.4185  -1.0710
N       -1.5201  -0.0515  1.4373
H       2.9121  -2.3906  0.3719
H       1.6677  -2.5560  -0.8232
H       -2.9604  -0.4473  -0.8578
H       -3.1161  -2.1743  -0.6939
H       1.7611  0.9901  -1.5969
H       1.1444  -0.3937  -2.1907
H       -1.9706  0.8436  1.4142
H       -1.1684  -0.1767  2.3692
H       -2.1038  -2.0593  1.5592
H       -3.4582  -0.9744  1.4027
H       0.4738  -2.3079  0.9783
H       1.4602  -1.2166  1.6917
H       3.2126  -1.0899  -1.5355
H       3.1437  -0.0703  -0.1223
H       -0.8211  -2.3613  -1.0637
H       -1.2322  -1.1390  -2.0321
