27

Co      -0.0028  0.0107  -0.0159
Cl      -1.0967  1.6096  -1.2030
Cl      1.2122  1.5209  1.4196
C       2.7803  -0.7296  -0.8690
C       2.2150  -2.0256  -0.1301
C       -2.6427  -1.3206  -0.4477
C       -2.4650  -1.2160  1.0598
N       1.5117  0.0341  -1.2768
N       1.0314  -1.4480  0.8072
N       -1.2113  -1.3279  -0.9526
N       -1.5042  -0.0864  1.2464
H       2.9355  -2.5178  0.5320
H       1.7993  -2.7688  -0.8002
H       -3.1485  -0.4648  -0.8659
H       -3.1514  -2.2221  -0.7588
H       1.7087  1.0233  -1.3464
H       1.2020  -0.2413  -2.1862
H       -1.9802  0.7862  1.0574
H       -1.1852  -0.0141  2.2035
H       -2.0143  -2.1229  1.4482
H       -3.3816  -1.0408  1.6065
H       0.4729  -2.1992  1.1762
H       1.4743  -1.0053  1.5913
H       3.4668  -0.8542  -1.7085
H       3.2625  -0.1036  -0.1204
H       -0.8444  -2.2653  -0.8869
H       -1.2180  -1.0844  -1.9300
