27

Co      -0.0329  0.0009  -0.0384
Cl      -1.0915  1.6071  -1.2176
Cl      1.1844  1.4698  1.3813
C       2.7621  -0.7271  -0.8301
C       2.2439  -2.0871  -0.0688
C       -2.5930  -1.3620  -0.4554
C       -2.4953  -1.1979  1.0979
N       1.4497  0.1039  -1.2604
N       1.1078  -1.4852  0.8467
N       -1.1526  -1.1907  -0.9586
N       -1.4660  -0.0590  1.2988
H       2.9521  -2.6754  0.5153
H       1.7685  -2.7405  -0.7925
H       -3.1461  -0.5170  -0.8462
H       -3.0252  -2.2833  -0.8463
H       1.6558  1.0951  -1.2512
H       1.2053  -0.1125  -2.2109
H       -1.9200  0.8377  1.2317
H       -1.0531  -0.0792  2.2181
H       -2.1471  -2.0844  1.6153
H       -3.4405  -0.9020  1.5426
H       0.5692  -2.2040  1.3219
H       1.5640  -0.9315  1.5718
H       3.3456  -0.8934  -1.7388
H       3.3294  -0.0849  -0.1708
H       -0.6852  -2.0872  -0.9533
H       -1.1889  -0.8744  -1.9100
