27

Co      0.0291  0.0283  0.0631
Cl      -1.0848  1.6213  -1.2407
Cl      1.0980  1.3695  1.2935
C       2.6759  -0.7041  -0.8542
C       2.1103  -1.8909  -0.0871
C       -2.4771  -1.3277  -0.4528
C       -2.4239  -1.1241  1.0545
N       1.5136  0.0652  -1.3474
N       0.9684  -1.4669  0.7974
N       -1.0877  -1.3342  -1.0140
N       -1.4318  -0.0654  1.4010
H       2.8630  -2.3830  0.5027
H       1.7138  -2.6144  -0.7881
H       -3.0013  -0.5196  -0.9246
H       -2.9905  -2.2494  -0.6844
H       1.7312  1.0298  -1.5040
H       1.1775  -0.2938  -2.2287
H       -1.8472  0.8481  1.3627
H       -1.0960  -0.1736  2.3391
H       -2.1155  -2.0379  1.5528
H       -3.4055  -0.8738  1.4320
H       0.3494  -2.2664  0.9453
H       1.3372  -1.2015  1.7129
H       3.2965  -1.0566  -1.6670
H       3.2700  -0.0656  -0.2232
H       -0.7338  -2.2636  -1.0592
H       -1.1275  -0.9784  -1.9485
