27

Co      0.0057  0.0296  0.0141
Cl      -1.0985  1.6239  -1.2208
Cl      1.1212  1.3750  1.3107
C       2.5809  -0.7288  -0.7826
C       2.1218  -1.8871  -0.0709
C       -2.4937  -1.2734  -0.4492
C       -2.3578  -1.1448  1.0438
N       1.5031  0.1032  -1.3025
N       1.1685  -1.5765  0.8911
N       -1.1448  -1.3835  -1.0722
N       -1.4892  0.0135  1.3735
H       2.9964  -2.3987  0.3225
H       1.6741  -2.5629  -0.7846
H       -2.9556  -0.3874  -0.8476
H       -3.1168  -2.1203  -0.7039
H       1.7969  1.0606  -1.3786
H       1.2313  -0.1797  -2.2222
H       -1.9707  0.8917  1.3215
H       -1.1182  -0.0569  2.2986
H       -1.9067  -2.0286  1.4789
H       -3.3467  -1.0388  1.4772
H       0.6741  -2.4063  1.1616
H       1.5737  -1.1836  1.7222
H       3.1625  -1.1456  -1.6018
H       3.2412  -0.1103  -0.1885
H       -0.8103  -2.3249  -1.0228
H       -1.1961  -1.1203  -2.0388
