27

Co      -0.0157  -0.0239  -0.0042
Cl      -1.1120  1.6380  -1.2218
Cl      1.2205  1.5287  1.4322
C       2.7031  -0.7251  -0.7954
C       2.1429  -1.9335  -0.1343
C       -2.6363  -1.3392  -0.4368
C       -2.4383  -1.1814  1.0318
N       1.5692  0.0486  -1.3811
N       1.1494  -1.5234  0.9121
N       -1.2531  -1.3433  -1.0178
N       -1.4837  -0.0732  1.2516
H       2.8414  -2.5270  0.4536
H       1.7178  -2.5860  -0.8919
H       -3.2659  -0.5286  -0.7912
H       -3.0416  -2.2844  -0.8014
H       1.7187  1.0499  -1.3518
H       1.1391  -0.1886  -2.2607
H       -1.8589  0.8506  1.0912
H       -1.0481  -0.0600  2.1580
H       -2.0548  -2.1180  1.4142
H       -3.3336  -0.9271  1.5934
H       0.6068  -2.2987  1.2275
H       1.4634  -0.9484  1.6946
H       3.3083  -0.9050  -1.6809
H       3.2981  -0.1677  -0.0853
H       -0.7725  -2.2346  -1.0037
H       -1.2272  -0.9610  -1.9457
