27

Co      -0.0088  -0.0356  0.0029
Cl      -1.1075  1.6314  -1.2338
Cl      1.1789  1.4725  1.3778
C       2.7886  -0.7227  -0.8835
C       2.1996  -1.9983  -0.1178
C       -2.5784  -1.3324  -0.4306
C       -2.4901  -1.1759  1.0848
N       1.5313  0.0552  -1.2808
N       1.0270  -1.4106  0.8259
N       -1.1538  -1.2229  -0.9670
N       -1.4940  -0.0876  1.2997
H       2.9079  -2.5062  0.5385
H       1.7576  -2.7328  -0.7796
H       -3.1615  -0.5390  -0.8756
H       -2.9980  -2.2918  -0.7258
H       1.7087  1.0508  -1.2805
H       1.2440  -0.1689  -2.2157
H       -1.9264  0.8084  1.1170
H       -1.1804  -0.0407  2.2586
H       -2.1269  -2.0837  1.5469
H       -3.4359  -0.9299  1.5384
H       0.4914  -2.1642  1.2234
H       1.4798  -0.9373  1.5913
H       3.4478  -0.8907  -1.7322
H       3.3070  -0.1072  -0.1615
H       -0.7655  -2.1490  -1.0611
H       -1.2067  -0.8259  -1.8903
