27

Co      -0.0075  -0.0660  -0.0126
Cl      -1.0911  1.6294  -1.2232
Cl      1.2060  1.5275  1.4251
C       2.7470  -0.6817  -0.8271
C       2.1560  -2.0201  -0.0860
C       -2.5780  -1.3704  -0.4702
C       -2.4673  -1.1742  1.0850
N       1.4326  0.0802  -1.3279
N       0.9934  -1.4188  0.8093
N       -1.1476  -1.2653  -0.9931
N       -1.4148  -0.0633  1.2882
H       2.8078  -2.6682  0.5188
H       1.6644  -2.6278  -0.8473
H       -3.1006  -0.5153  -0.8720
H       -3.0595  -2.2751  -0.8266
H       1.5760  1.0783  -1.3882
H       1.1811  -0.2231  -2.2497
H       -1.8345  0.8469  1.1751
H       -1.0429  -0.0613  2.2232
H       -2.1470  -2.0641  1.6145
H       -3.4055  -0.8518  1.5232
H       0.4049  -2.1331  1.2066
H       1.4291  -0.9404  1.5816
H       3.3769  -0.8764  -1.6848
H       3.2653  -0.0101  -0.1577
H       -0.7403  -2.1836  -1.0525
H       -1.1750  -0.8912  -1.9247
