27

Co      -0.0148  0.0179  0.0364
Cl      -1.0535  1.5467  -1.1839
Cl      1.1201  1.3815  1.3113
C       2.6912  -0.7116  -0.8643
C       2.1205  -1.8843  -0.0843
C       -2.4985  -1.2894  -0.4574
C       -2.3735  -1.1259  1.0472
N       1.5308  0.0914  -1.3233
N       1.0068  -1.4333  0.8138
N       -1.1300  -1.3226  -1.0595
N       -1.4582  -0.0013  1.3638
H       2.8752  -2.3855  0.4971
H       1.7006  -2.6086  -0.7700
H       -3.0194  -0.4591  -0.8908
H       -3.0427  -2.1912  -0.6874
H       1.7567  1.0636  -1.3920
H       1.2251  -0.1925  -2.2356
H       -1.9156  0.8875  1.2802
H       -1.1164  -0.0471  2.2992
H       -1.9518  -2.0188  1.4896
H       -3.3432  -0.9737  1.4942
H       0.4473  -2.2285  1.0641
H       1.4001  -1.0704  1.6652
H       3.2819  -1.0702  -1.7001
H       3.3183  -0.0870  -0.2438
H       -0.7841  -2.2586  -1.1032
H       -1.1769  -0.9654  -1.9947
