27

Co      0.0119  -0.0350  -0.0451
Cl      -1.0785  1.6009  -1.1918
Cl      1.1948  1.5150  1.4111
C       2.6774  -0.6832  -0.8327
C       2.1772  -2.0460  -0.0546
C       -2.5874  -1.3163  -0.4718
C       -2.4217  -1.2020  1.0791
N       1.3768  0.1351  -1.2851
N       0.9975  -1.5075  0.8439
N       -1.1445  -1.3016  -0.9579
N       -1.4248  -0.0340  1.2428
H       2.8987  -2.5956  0.5428
H       1.7416  -2.7258  -0.7817
H       -3.0325  -0.3944  -0.8320
H       -3.1389  -2.1625  -0.8805
H       1.5621  1.1296  -1.2873
H       1.1123  -0.0960  -2.2248
H       -1.8933  0.8456  1.0844
H       -1.0534  0.0322  2.1762
H       -2.0051  -2.0843  1.5401
H       -3.3444  -0.9624  1.5930
H       0.4018  -2.2358  1.2003
H       1.4046  -1.0512  1.6437
H       3.2659  -0.8626  -1.7283
H       3.2329  -0.0208  -0.1830
H       -0.7478  -2.2235  -0.8664
H       -1.1369  -1.0687  -1.9412
