27

Co      -0.0311  -0.0583  0.0063
Cl      -1.1341  1.6849  -1.2466
Cl      1.2090  1.5266  1.4132
C       2.7950  -0.7246  -0.8872
C       2.2126  -2.0057  -0.1227
C       -2.6125  -1.3010  -0.4449
C       -2.4444  -1.2061  1.0613
N       1.5481  0.0570  -1.3159
N       1.0306  -1.4916  0.8552
N       -1.1659  -1.2836  -0.9085
N       -1.4750  -0.0829  1.2217
H       2.9421  -2.5176  0.5030
H       1.7775  -2.7338  -0.7980
H       -3.1215  -0.4503  -0.8678
H       -3.0931  -2.2141  -0.7797
H       1.7176  1.0605  -1.2754
H       1.2904  -0.1399  -2.2649
H       -1.9378  0.7933  0.9974
H       -1.1623  0.0246  2.1837
H       -1.9904  -2.1134  1.4485
H       -3.3531  -1.0223  1.6181
H       0.5262  -2.2794  1.2218
H       1.4712  -1.0415  1.6405
H       3.4675  -0.9081  -1.7188
H       3.3041  -0.0986  -0.1661
H       -0.7901  -2.2183  -0.8486
H       -1.1409  -1.0200  -1.8786
