27

Co      -0.0075  -0.0731  -0.0135
Cl      -1.1055  1.6245  -1.2041
Cl      1.2084  1.5093  1.4191
C       2.7024  -0.7118  -0.8071
C       2.1299  -1.9288  -0.1274
C       -2.5948  -1.2848  -0.4406
C       -2.4131  -1.1902  1.0569
N       1.5093  0.0412  -1.2880
N       1.0936  -1.4004  0.8184
N       -1.1936  -1.2896  -0.9868
N       -1.4972  -0.0400  1.2272
H       2.8717  -2.5074  0.4108
H       1.6476  -2.5871  -0.8408
H       -3.1022  -0.4161  -0.8244
H       -3.1212  -2.1723  -0.7569
H       1.7018  1.0335  -1.3184
H       1.2662  -0.2248  -2.2191
H       -1.9675  0.8312  0.9745
H       -1.1984  0.0848  2.1912
H       -1.9382  -2.0804  1.4586
H       -3.3445  -1.0434  1.5851
H       0.6126  -2.1615  1.2747
H       1.5624  -0.8732  1.5448
H       3.3684  -0.9585  -1.6174
H       3.2325  -0.0881  -0.1051
H       -0.8530  -2.2367  -0.9982
H       -1.2215  -0.9711  -1.9377
