27

Co      -0.0075  -0.0710  -0.0160
Cl      -1.0828  1.6100  -1.2037
Cl      1.1921  1.5025  1.4084
C       2.7102  -0.6711  -0.8539
C       2.1264  -1.9699  -0.1234
C       -2.5473  -1.3019  -0.4489
C       -2.4133  -1.1508  1.0660
N       1.4550  0.0661  -1.2984
N       0.9772  -1.4077  0.8522
N       -1.1331  -1.2831  -0.9986
N       -1.4310  -0.0578  1.2648
H       2.8414  -2.5051  0.4921
H       1.6618  -2.6732  -0.8043
H       -3.0812  -0.4742  -0.8832
H       -3.0364  -2.2234  -0.7282
H       1.5995  1.0670  -1.3190
H       1.1761  -0.1931  -2.2256
H       -1.8624  0.8390  1.0648
H       -1.1126  0.0138  2.2188
H       -2.0167  -2.0558  1.5001
H       -3.3460  -0.9319  1.5560
H       0.4501  -2.1588  1.2596
H       1.4380  -0.9316  1.6101
H       3.4184  -0.8078  -1.6708
H       3.1670  -0.0392  -0.1001
H       -0.7850  -2.2232  -1.0509
H       -1.1706  -0.9246  -1.9352
