27

Co      0.0008  -0.0127  0.0369
Cl      -1.0776  1.6160  -1.2298
Cl      1.0997  1.3508  1.2924
C       2.6364  -0.6754  -0.8269
C       2.0968  -1.9165  -0.0872
C       -2.4207  -1.3071  -0.4703
C       -2.3656  -1.0801  1.0670
N       1.4193  0.0700  -1.2351
N       1.0174  -1.4017  0.8157
N       -1.0574  -1.3186  -1.1052
N       -1.3970  -0.0047  1.4132
H       2.9415  -2.4536  0.3222
H       1.5556  -2.5796  -0.7520
H       -2.8728  -0.4814  -1.0029
H       -3.0640  -2.1953  -0.5535
H       1.6852  1.0242  -1.4488
H       1.2863  -0.3219  -2.1719
H       -1.8880  0.8814  1.4154
H       -1.1216  -0.1188  2.3767
H       -1.9978  -1.9442  1.6138
H       -3.3948  -0.9162  1.3786
H       0.5416  -2.1934  1.2127
H       1.6046  -1.0962  1.5967
H       3.3582  -1.0410  -1.5524
H       3.1234  0.0225  -0.1652
H       -0.8428  -2.3032  -1.2393
H       -1.2050  -0.9698  -2.0393
