27

Co      0.0056  -0.0675  -0.0506
Cl      -1.0828  1.6093  -1.1960
Cl      1.1991  1.5256  1.4195
C       2.6784  -0.6845  -0.8680
C       2.1544  -1.9934  -0.0991
C       -2.5453  -1.2726  -0.4344
C       -2.4276  -1.1849  1.0826
N       1.4357  0.0974  -1.2858
N       0.9588  -1.4779  0.8484
N       -1.1116  -1.2766  -0.9410
N       -1.4678  -0.0633  1.2551
H       2.9131  -2.4338  0.5475
H       1.7604  -2.7687  -0.7521
H       -3.0322  -0.4038  -0.8423
H       -3.0535  -2.1627  -0.7831
H       1.6087  1.0982  -1.2383
H       1.1664  -0.0887  -2.2381
H       -1.9208  0.8154  1.0112
H       -1.1544  0.0577  2.2125
H       -2.0044  -2.0864  1.4985
H       -3.3631  -0.9927  1.5812
H       0.4176  -2.2431  1.2044
H       1.3763  -1.0245  1.6427
H       3.3550  -0.8234  -1.7073
H       3.1648  -0.0547  -0.1353
H       -0.7538  -2.2140  -0.9067
H       -1.1329  -1.0053  -1.9103
