27

Co      0.0000  -0.0058  -0.0029
Cl      -1.0573  1.5779  -1.1956
Cl      1.1270  1.4074  1.3331
C       2.5819  -0.6824  -0.8542
C       2.0787  -1.8681  -0.1195
C       -2.4407  -1.2562  -0.4258
C       -2.3606  -1.0923  1.0419
N       1.4809  0.0716  -1.2945
N       0.9832  -1.4971  0.8814
N       -1.0745  -1.3261  -1.0352
N       -1.4301  -0.0549  1.3499
H       2.9385  -2.2257  0.4429
H       1.7050  -2.6937  -0.7287
H       -2.9959  -0.4821  -0.9257
H       -2.9471  -2.2022  -0.5831
H       1.7039  1.0464  -1.3332
H       1.1642  -0.1797  -2.2143
H       -1.8522  0.8506  1.2423
H       -1.1033  -0.0919  2.2897
H       -1.9814  -2.0159  1.4537
H       -3.3352  -0.9307  1.4687
H       0.4895  -2.3329  1.1369
H       1.3967  -1.1345  1.7222
H       3.3026  -0.9218  -1.6254
H       3.0811  -0.0855  -0.1111
H       -0.7606  -2.2718  -1.0621
H       -1.1500  -1.0053  -1.9819
