27

Co      -0.0386  -0.0567  -0.0507
Cl      -1.1021  1.6534  -1.2401
Cl      1.1980  1.5068  1.4123
C       2.6543  -0.7207  -0.8057
C       2.1613  -1.9725  -0.0993
C       -2.4885  -1.3201  -0.4194
C       -2.4693  -1.1516  1.0940
N       1.4845  0.0677  -1.3004
N       1.0983  -1.5325  0.8597
N       -1.0956  -1.2379  -0.9968
N       -1.4849  -0.0734  1.3636
H       2.9731  -2.4634  0.4213
H       1.7324  -2.6805  -0.7887
H       -3.0482  -0.5095  -0.8601
H       -2.9473  -2.2540  -0.7207
H       1.7049  1.0537  -1.2714
H       1.2712  -0.1412  -2.2620
H       -1.9022  0.8375  1.2896
H       -1.0941  -0.1218  2.2896
H       -2.1590  -2.0514  1.6107
H       -3.4595  -0.8917  1.4482
H       0.6367  -2.3268  1.2674
H       1.5300  -1.0164  1.6166
H       3.3195  -0.9637  -1.6163
H       3.1849  -0.0949  -0.1126
H       -0.6903  -2.1569  -1.0451
H       -1.1821  -0.8960  -1.9367
