27

Co      -0.0693  -0.0165  -0.0093
Cl      -1.1205  1.6671  -1.2370
Cl      1.2170  1.5244  1.4174
C       2.7242  -0.7617  -0.8152
C       2.2143  -1.9726  -0.1231
C       -2.5890  -1.3030  -0.4356
C       -2.4126  -1.1856  1.0364
N       1.5774  0.0509  -1.3327
N       1.1602  -1.5884  0.8775
N       -1.1985  -1.3517  -0.9840
N       -1.4914  -0.0529  1.2829
H       2.9349  -2.4813  0.5196
H       1.8642  -2.6942  -0.8566
H       -3.1716  -0.4621  -0.7835
H       -3.0253  -2.2210  -0.8348
H       1.7460  1.0542  -1.2259
H       1.1587  -0.1026  -2.2428
H       -1.8860  0.8608  1.1575
H       -1.0252  -0.0571  2.1787
H       -1.9987  -2.1182  1.4014
H       -3.3164  -0.9737  1.5948
H       0.6420  -2.3859  1.1816
H       1.4420  -1.0056  1.6772
H       3.2707  -0.9391  -1.7467
H       3.3721  -0.2161  -0.1361
H       -0.6951  -2.2356  -0.8620
H       -1.1442  -1.0636  -1.9438
