27

Co      -0.0556  -0.0464  -0.0406
Cl      -1.0955  1.6442  -1.2177
Cl      1.2355  1.5637  1.4585
C       2.7024  -0.7295  -0.8101
C       2.1640  -1.9641  -0.1262
C       -2.5295  -1.2996  -0.4405
C       -2.4321  -1.1815  1.0693
N       1.5130  0.0216  -1.3260
N       1.0607  -1.5051  0.7908
N       -1.1380  -1.3526  -0.9987
N       -1.5019  -0.0555  1.3355
H       2.9316  -2.4791  0.4442
H       1.7551  -2.6600  -0.8405
H       -3.0015  -0.4223  -0.8541
H       -3.0938  -2.1693  -0.7500
H       1.7194  1.0077  -1.3705
H       1.2861  -0.2548  -2.2601
H       -1.9566  0.8318  1.2293
H       -1.1289  -0.0654  2.2703
H       -2.0259  -2.0762  1.5145
H       -3.3995  -1.0112  1.5036
H       0.5702  -2.2969  1.1579
H       1.4741  -1.0318  1.5767
H       3.3887  -0.9711  -1.6008
H       3.2071  -0.0870  -0.1049
H       -0.7728  -2.2913  -0.9376
H       -1.1722  -1.1118  -1.9738
