27

Co      0.0718  0.0185  0.0073
Cl      -1.0587  1.5592  -1.1966
Cl      1.0998  1.3567  1.3085
C       2.5481  -0.6847  -0.7710
C       2.0227  -1.8256  -0.0765
C       -2.4425  -1.3032  -0.4314
C       -2.4224  -1.1223  1.0765
N       1.4741  0.0873  -1.3568
N       1.0578  -1.4478  0.8335
N       -1.1058  -1.3356  -1.1081
N       -1.5111  -0.0153  1.4569
H       2.8381  -2.3719  0.3617
H       1.5634  -2.4747  -0.8077
H       -2.9501  -0.4561  -0.8469
H       -3.0183  -2.1797  -0.6738
H       1.7367  1.0382  -1.5461
H       1.1765  -0.3097  -2.2371
H       -1.9431  0.8865  1.3868
H       -1.1799  -0.1083  2.3945
H       -2.0965  -2.0117  1.6029
H       -3.4550  -0.9303  1.3786
H       0.4725  -2.2353  1.0554
H       1.4495  -1.1045  1.6923
H       3.1823  -1.1087  -1.5433
H       3.1506  -0.0456  -0.1537
H       -0.7876  -2.2785  -1.2425
H       -1.2289  -0.9186  -2.0220
