27

Co      -0.0074  0.0253  0.0491
Cl      -1.0758  1.6100  -1.2280
Cl      1.0980  1.3451  1.2888
C       2.5656  -0.6979  -0.7748
C       2.0672  -1.8468  -0.0769
C       -2.4397  -1.3198  -0.4663
C       -2.3378  -1.0713  1.0276
N       1.4826  0.0882  -1.3254
N       1.1167  -1.5251  0.8826
N       -1.1145  -1.3806  -1.1389
N       -1.3920  0.0039  1.4180
H       2.9088  -2.4041  0.3136
H       1.5926  -2.4870  -0.8090
H       -2.9750  -0.5131  -0.9301
H       -3.0149  -2.2265  -0.6173
H       1.7431  1.0426  -1.4715
H       1.1913  -0.2696  -2.2191
H       -1.8129  0.9259  1.4856
H       -0.9878  -0.1921  2.3236
H       -2.0004  -1.9676  1.5336
H       -3.3368  -0.8637  1.3913
H       0.6077  -2.3512  1.1294
H       1.5284  -1.1635  1.7259
H       3.1689  -1.1295  -1.5725
H       3.2039  -0.0691  -0.1771
H       -0.7763  -2.3148  -1.2025
H       -1.1973  -1.0076  -2.0641
