27

Co      -0.0060  0.0133  -0.0016
Cl      -1.1080  1.6530  -1.2325
Cl      1.1859  1.4897  1.3930
C       2.7782  -0.7146  -0.8243
C       2.2169  -2.0686  -0.0957
C       -2.5987  -1.3380  -0.4774
C       -2.4612  -1.2259  1.0748
N       1.4498  0.0512  -1.3073
N       1.0291  -1.4803  0.7809
N       -1.1416  -1.3282  -0.9205
N       -1.4594  -0.0663  1.2912
H       2.8819  -2.6829  0.5271
H       1.7683  -2.7007  -0.8596
H       -3.0284  -0.4124  -0.8518
H       -3.1501  -2.1818  -0.8949
H       1.6282  1.0374  -1.4400
H       1.1642  -0.2941  -2.2049
H       -1.9338  0.8149  1.1872
H       -1.0870  -0.0575  2.2275
H       -2.0608  -2.1199  1.5350
H       -3.3900  -0.9884  1.5720
H       0.4131  -2.2008  1.1297
H       1.4507  -1.0557  1.5879
H       3.4072  -0.8788  -1.6929
H       3.2921  -0.0445  -0.1452
H       -0.7286  -2.2462  -0.7768
H       -1.1017  -1.1367  -1.9147
