27

Co      0.0043  0.0199  0.0032
Cl      -1.0559  1.5450  -1.1822
Cl      1.1226  1.3860  1.3203
C       2.6010  -0.7281  -0.8208
C       2.0925  -1.8382  -0.0546
C       -2.4731  -1.2812  -0.4347
C       -2.3975  -1.1400  1.0650
N       1.5445  0.1206  -1.3605
N       1.0795  -1.5169  0.8404
N       -1.1291  -1.3151  -1.0725
N       -1.5211  0.0088  1.4112
H       2.9351  -2.3210  0.4136
H       1.6831  -2.5491  -0.7555
H       -2.9788  -0.4270  -0.8391
H       -3.0424  -2.1575  -0.6967
H       1.8356  1.0789  -1.4027
H       1.2888  -0.1408  -2.2926
H       -1.9876  0.8909  1.3474
H       -1.1612  -0.0623  2.3383
H       -1.9879  -2.0198  1.5412
H       -3.4070  -1.0061  1.4421
H       0.5476  -2.3471  1.0490
H       1.4386  -1.1561  1.7115
H       3.1599  -1.2221  -1.6316
H       3.2966  -0.1007  -0.2643
H       -0.7780  -2.2493  -1.1195
H       -1.2121  -0.9689  -2.0120
