27

Co      -0.0611  -0.0665  -0.0182
Cl      -1.0913  1.6391  -1.2188
Cl      1.1886  1.4982  1.3936
C       2.6764  -0.7309  -0.8332
C       2.1747  -1.9511  -0.0978
C       -2.4914  -1.2657  -0.4420
C       -2.3817  -1.1550  1.0620
N       1.4776  0.0597  -1.2500
N       1.0341  -1.4843  0.7714
N       -1.0871  -1.2886  -0.9620
N       -1.4445  -0.0347  1.2932
H       2.9494  -2.3958  0.5235
H       1.8111  -2.7150  -0.7776
H       -2.9783  -0.4049  -0.8582
H       -3.0202  -2.1543  -0.7587
H       1.6845  1.0510  -1.2046
H       1.2361  -0.1244  -2.2106
H       -1.8953  0.8521  1.1513
H       -1.0869  -0.0035  2.2307
H       -1.9635  -2.0503  1.4989
H       -3.3346  -0.9756  1.5257
H       0.5488  -2.2778  1.1415
H       1.4340  -1.0032  1.5638
H       3.2738  -0.9921  -1.6903
H       3.2669  -0.1107  -0.1798
H       -0.7105  -2.2184  -0.8919
H       -1.1021  -1.0417  -1.9362
