27

Co      0.0080  -0.0655  -0.0526
Cl      -1.0852  1.6118  -1.1985
Cl      1.2015  1.5280  1.4244
C       2.6190  -0.7096  -0.8122
C       2.1219  -1.9217  -0.0979
C       -2.5219  -1.2635  -0.4125
C       -2.4222  -1.1824  1.0747
N       1.4903  0.0968  -1.3477
N       1.0375  -1.5354  0.8575
N       -1.1342  -1.3287  -0.9917
N       -1.5215  -0.0408  1.3177
H       2.8445  -2.3776  0.5828
H       1.8068  -2.6801  -0.8173
H       -3.0643  -0.3861  -0.7269
H       -2.9873  -2.1463  -0.8653
H       1.6415  1.1018  -1.2297
H       1.0639  -0.0526  -2.2600
H       -1.9023  0.8673  1.0713
H       -1.1150  0.0437  2.2352
H       -2.0391  -2.1071  1.4728
H       -3.3595  -0.9669  1.5611
H       0.4456  -2.3082  1.0987
H       1.2781  -0.9935  1.6975
H       3.1717  -0.8893  -1.7329
H       3.2498  -0.1521  -0.1357
H       -0.6745  -2.2252  -0.9547
H       -1.1245  -0.9797  -1.9343
