27

Co      -0.0086  -0.0568  -0.0214
Cl      -1.1163  1.6499  -1.2225
Cl      1.2317  1.5578  1.4477
C       2.7931  -0.7188  -0.8298
C       2.2011  -2.0298  -0.1036
C       -2.6194  -1.3233  -0.4515
C       -2.4627  -1.2287  1.0853
N       1.5162  0.0825  -1.3691
N       1.0611  -1.4809  0.8421
N       -1.2064  -1.3646  -1.0132
N       -1.5371  -0.0217  1.3155
H       2.7792  -2.6785  0.6121
H       1.7853  -2.6525  -0.9001
H       -3.1219  -0.3894  -0.7184
H       -3.1200  -2.1667  -0.9713
H       1.6130  1.0993  -1.3105
H       1.0843  -0.1316  -2.2593
H       -1.9411  0.8782  1.0799
H       -1.1160  0.0677  2.2356
H       -2.0519  -2.1350  1.4996
H       -3.3750  -0.9956  1.6168
H       0.4088  -2.1863  1.1556
H       1.3402  -0.9026  1.6429
H       3.3190  -0.8311  -1.7984
H       3.4092  -0.1277  -0.1612
H       -0.7232  -2.2583  -0.9879
H       -1.1571  -0.9846  -1.9454
