27

Co      -0.0763  -0.0213  -0.0076
Cl      -1.1094  1.6437  -1.2259
Cl      1.2059  1.5086  1.4063
C       2.8241  -0.7463  -0.8622
C       2.2314  -2.0126  -0.1504
C       -2.5871  -1.2842  -0.4296
C       -2.4482  -1.2091  1.0577
N       1.5938  0.0271  -1.3448
N       1.0696  -1.4939  0.8409
N       -1.1480  -1.2659  -0.8970
N       -1.5121  -0.0785  1.2704
H       2.8594  -2.5333  0.6181
H       1.8802  -2.7516  -0.8683
H       -3.1784  -0.4486  -0.7776
H       -2.9562  -2.2213  -0.8922
H       1.7018  1.0452  -1.2385
H       1.1616  -0.1341  -2.2512
H       -1.9107  0.8279  1.0629
H       -1.0848  -0.0038  2.1850
H       -2.0287  -2.1525  1.4017
H       -3.3384  -0.9922  1.6390
H       0.5181  -2.2528  1.1915
H       1.3739  -0.8958  1.6193
H       3.4262  -0.8057  -1.7930
H       3.3835  -0.1977  -0.1113
H       -0.6206  -2.1419  -0.7705
H       -1.0625  -0.9723  -1.8558
