27

Co      -0.0392  -0.0374  -0.0435
Cl      -1.0784  1.6021  -1.2053
Cl      1.1687  1.4554  1.3760
C       2.7365  -0.6901  -0.8175
C       2.1817  -2.0483  -0.0793
C       -2.5147  -1.3033  -0.4564
C       -2.4516  -1.1922  1.1062
N       1.4309  0.1011  -1.3091
N       1.0437  -1.4565  0.8382
N       -1.0669  -1.1882  -0.9323
N       -1.4654  -0.0308  1.3221
H       2.8665  -2.6716  0.4984
H       1.6936  -2.6700  -0.8273
H       -3.0024  -0.4087  -0.8217
H       -2.9941  -2.1789  -0.8978
H       1.5975  1.0984  -1.3108
H       1.2117  -0.1466  -2.2598
H       -1.9273  0.8570  1.2013
H       -1.0723  -0.0021  2.2485
H       -2.0729  -2.0752  1.6054
H       -3.4100  -0.9467  1.5403
H       0.5054  -2.1753  1.3094
H       1.4959  -0.9111  1.5681
H       3.3637  -0.8611  -1.6863
H       3.2533  -0.0315  -0.1382
H       -0.6209  -2.0921  -0.8882
H       -1.0766  -0.9014  -1.8934
