27

Co      0.0457  0.0268  0.0285
Cl      -1.0902  1.6182  -1.2205
Cl      1.0943  1.3533  1.2947
C       2.6456  -0.6780  -0.8391
C       2.0919  -1.9136  -0.0832
C       -2.4782  -1.2696  -0.4609
C       -2.4027  -1.1680  1.0711
N       1.4684  0.0803  -1.3336
N       0.9938  -1.4751  0.8378
N       -1.0598  -1.3131  -0.9579
N       -1.4711  -0.0389  1.3554
H       2.9577  -2.4410  0.3056
H       1.5726  -2.5807  -0.7604
H       -2.8484  -0.3689  -0.9456
H       -3.1417  -2.1056  -0.6715
H       1.7573  1.0294  -1.5728
H       1.3490  -0.3373  -2.2632
H       -2.0168  0.8083  1.2587
H       -1.2374  -0.0487  2.3376
H       -1.9487  -2.0372  1.5417
H       -3.4098  -1.0741  1.4669
H       0.4780  -2.2916  1.1234
H       1.5444  -1.2652  1.6853
H       3.4075  -1.0898  -1.5174
H       3.1077  0.0395  -0.1741
H       -0.8353  -2.2969  -0.9101
H       -1.1229  -1.1300  -1.9523
