27

Co      0.0690  0.0711  0.0185
Cl      -1.0943  1.6293  -1.2358
Cl      1.1040  1.3654  1.3029
C       2.6314  -0.6989  -0.8186
C       2.1338  -1.9663  -0.0866
C       -2.5005  -1.3234  -0.4586
C       -2.4470  -1.1617  1.0744
N       1.4202  0.0505  -1.2531
N       1.0268  -1.4794  0.7986
N       -1.0957  -1.3555  -1.0032
N       -1.4679  -0.0724  1.3918
H       3.0103  -2.4484  0.3366
H       1.6478  -2.6648  -0.7502
H       -2.8987  -0.4525  -0.9717
H       -3.1574  -2.1797  -0.6211
H       1.7361  0.9881  -1.5681
H       1.2484  -0.4080  -2.1547
H       -1.9906  0.7933  1.3744
H       -1.2109  -0.1658  2.3652
H       -2.0723  -2.0386  1.5927
H       -3.4664  -1.0002  1.4149
H       0.4738  -2.2692  1.0902
H       1.5802  -1.2694  1.6447
H       3.3849  -1.0333  -1.5286
H       3.0852  0.0099  -0.1344
H       -0.8662  -2.3361  -0.9861
H       -1.2048  -1.1600  -1.9925
