27

Co      0.0697  0.0374  0.0143
Cl      -1.1186  1.6551  -1.2481
Cl      1.1254  1.3917  1.3195
C       2.5580  -0.7411  -0.8051
C       2.1193  -1.8676  -0.1129
C       -2.4994  -1.2894  -0.4076
C       -2.4218  -1.1331  1.0505
N       1.5138  0.0454  -1.2403
N       1.1373  -1.5414  0.8622
N       -1.1673  -1.4165  -1.0928
N       -1.5368  -0.0611  1.4047
H       3.0379  -2.2286  0.3621
H       1.7426  -2.6683  -0.7408
H       -3.0213  -0.4784  -0.8762
H       -3.0804  -2.1947  -0.5601
H       1.8203  0.9957  -1.3679
H       1.1632  -0.2549  -2.1310
H       -1.9779  0.8308  1.2936
H       -1.2397  -0.1230  2.3605
H       -2.0433  -2.0458  1.4843
H       -3.4298  -1.0011  1.4252
H       0.6191  -2.3795  1.0796
H       1.5440  -1.2061  1.7198
H       3.2173  -1.0637  -1.5940
H       3.1487  -0.1600  -0.1187
H       -0.8904  -2.3781  -1.1568
H       -1.2897  -1.0810  -2.0345
