27

Co      -0.0556  -0.0529  -0.0371
Cl      -1.1045  1.6382  -1.2147
Cl      1.2415  1.5637  1.4555
C       2.8029  -0.7286  -0.8220
C       2.2226  -2.0494  -0.1095
C       -2.5939  -1.3174  -0.4535
C       -2.4490  -1.2169  1.0853
N       1.5162  0.0727  -1.3515
N       1.0866  -1.4907  0.8362
N       -1.1868  -1.3490  -1.0211
N       -1.5293  -0.0099  1.3332
H       2.8047  -2.6942  0.6082
H       1.8108  -2.6741  -0.9041
H       -3.1062  -0.3913  -0.7262
H       -3.0867  -2.1667  -0.9674
H       1.6150  1.0915  -1.2674
H       1.1059  -0.1198  -2.2554
H       -1.9353  0.8938  1.1504
H       -1.0690  0.0422  2.2376
H       -2.0382  -2.1213  1.5036
H       -3.3671  -0.9898  1.6050
H       0.4754  -2.1981  1.2085
H       1.3775  -0.8576  1.6037
H       3.3307  -0.8174  -1.7964
H       3.4112  -0.1414  -0.1435
H       -0.6801  -2.2348  -0.9703
H       -1.1414  -0.9905  -1.9591
