27

Co      -0.0439  0.0160  -0.0330
Cl      -1.0874  1.5968  -1.2011
Cl      1.2174  1.5082  1.4254
C       2.7820  -0.7239  -0.8214
C       2.1991  -2.0242  -0.1632
C       -2.6025  -1.3266  -0.4336
C       -2.4622  -1.1843  1.0605
N       1.5484  0.0219  -1.3316
N       1.1243  -1.4687  0.8916
N       -1.2127  -1.3322  -1.0386
N       -1.5304  -0.0620  1.3330
H       2.8395  -2.6038  0.5281
H       1.7738  -2.7018  -0.8921
H       -3.2225  -0.5080  -0.7896
H       -3.0100  -2.2641  -0.8120
H       1.6681  1.0288  -1.3287
H       1.0841  -0.2285  -2.2013
H       -1.9186  0.8578  1.1921
H       -1.0807  -0.0648  2.2368
H       -2.0778  -2.1217  1.4393
H       -3.3785  -0.9595  1.5855
H       0.5634  -2.1954  1.3006
H       1.4764  -0.8343  1.6218
H       3.4406  -0.7176  -1.7294
H       3.2779  -0.1741  -0.0182
H       -0.7190  -2.2203  -1.0290
H       -1.2109  -0.9488  -1.9648
