27

Co      -0.0067  -0.0272  -0.0211
Cl      -1.1237  1.6503  -1.2355
Cl      1.1916  1.4863  1.4005
C       2.7957  -0.7090  -0.8158
C       2.1871  -2.0312  -0.1030
C       -2.6125  -1.3296  -0.4375
C       -2.5089  -1.2409  1.0975
N       1.5561  0.0979  -1.4369
N       1.1189  -1.5212  0.9311
N       -1.1683  -1.2352  -0.9296
N       -1.5497  -0.0566  1.3132
H       2.7906  -2.7372  0.5133
H       1.7064  -2.6002  -0.9129
H       -3.1776  -0.4365  -0.7159
H       -3.0008  -2.2224  -1.0010
H       1.6633  1.1115  -1.3731
H       1.1634  -0.1260  -2.3361
H       -1.9514  0.8500  1.1074
H       -1.1083  0.0120  2.2241
H       -2.1345  -2.1590  1.5293
H       -3.4250  -0.9675  1.6127
H       0.5108  -2.2420  1.2840
H       1.4349  -0.9183  1.6995
H       3.3741  -0.8430  -1.7405
H       3.3755  -0.1168  -0.1249
H       -0.6212  -2.1032  -0.8928
H       -1.1069  -0.8541  -1.8598
