27

Co      0.0080  -0.0576  -0.0521
Cl      -1.0936  1.6312  -1.2180
Cl      1.2154  1.5530  1.4411
C       2.7152  -0.6926  -0.8486
C       2.1790  -2.0387  -0.0567
C       -2.5612  -1.3412  -0.4532
C       -2.4866  -1.2059  1.1114
N       1.4354  0.1286  -1.3546
N       0.9848  -1.5259  0.8471
N       -1.1310  -1.2956  -0.9845
N       -1.4860  -0.0491  1.3349
H       2.8918  -2.6043  0.5399
H       1.7385  -2.7012  -0.7926
H       -3.0197  -0.4301  -0.8237
H       -3.1011  -2.1947  -0.8668
H       1.6146  1.1242  -1.3418
H       1.2008  -0.1016  -2.3038
H       -1.9323  0.8405  1.1977
H       -1.1116  -0.0247  2.2709
H       -2.1347  -2.0849  1.6300
H       -3.4496  -0.9395  1.5238
H       0.3822  -2.2689  1.1588
H       1.3698  -1.0922  1.6707
H       3.3234  -0.9166  -1.7115
H       3.2631  -0.0182  -0.2052
H       -0.7313  -2.2186  -0.9917
H       -1.1643  -0.9817  -1.9390
