27

Co      0.0644  -0.0103  0.0240
Cl      -1.1204  1.6576  -1.2534
Cl      1.1201  1.3789  1.3161
C       2.5958  -0.7206  -0.7549
C       2.0936  -1.8801  -0.0958
C       -2.5055  -1.3203  -0.4263
C       -2.4468  -1.1478  1.0710
N       1.4801  0.0470  -1.2659
N       1.1505  -1.4401  0.8130
N       -1.1432  -1.3063  -1.0513
N       -1.5046  -0.0499  1.3775
H       2.9009  -2.4375  0.3514
H       1.6243  -2.5261  -0.8255
H       -3.0348  -0.4848  -0.8407
H       -3.0358  -2.2201  -0.6907
H       1.7395  1.0061  -1.4239
H       1.1846  -0.3106  -2.1562
H       -1.9346  0.8508  1.2560
H       -1.1921  -0.0881  2.3294
H       -2.1148  -2.0437  1.5840
H       -3.4488  -0.9251  1.4236
H       0.6107  -2.2125  1.1477
H       1.5869  -1.0132  1.6081
H       3.2076  -1.0821  -1.5673
H       3.2094  -0.1033  -0.1235
H       -0.8073  -2.2457  -1.1613
H       -1.2432  -0.9064  -1.9712
