27

Co      0.0463  0.0010  0.0248
Cl      -1.1229  1.6636  -1.2523
Cl      1.1296  1.4047  1.3280
C       2.6639  -0.7077  -0.8393
C       2.1301  -1.9230  -0.0865
C       -2.5164  -1.3041  -0.4369
C       -2.4373  -1.1629  1.0749
N       1.5252  0.0979  -1.3504
N       1.0743  -1.5367  0.9048
N       -1.1373  -1.3592  -1.0448
N       -1.5181  -0.0359  1.3945
H       2.9372  -2.4479  0.3925
H       1.6671  -2.6053  -0.7853
H       -2.9990  -0.4388  -0.8561
H       -3.0878  -2.1780  -0.7117
H       1.7602  1.0685  -1.4303
H       1.2283  -0.1970  -2.2606
H       -1.9705  0.8508  1.2680
H       -1.1994  -0.0607  2.3460
H       -2.0471  -2.0585  1.5360
H       -3.4270  -0.9977  1.4761
H       0.5145  -2.3443  1.1321
H       1.4819  -1.1963  1.7608
H       3.3052  -1.0386  -1.6430
H       3.2434  -0.0782  -0.1871
H       -0.8119  -2.3051  -1.0997
H       -1.1976  -1.0032  -1.9809
