27

Co      0.0013  -0.0239  -0.0163
Cl      -1.1120  1.6380  -1.2218
Cl      1.2205  1.5263  1.4322
C       2.6980  -0.7254  -0.8060
C       2.1572  -1.9596  -0.1210
C       -2.6193  -1.3434  -0.4431
C       -2.4526  -1.1814  1.0554
N       1.5171  0.0432  -1.3026
N       1.1316  -1.4779  0.8597
N       -1.2392  -1.3470  -1.0472
N       -1.4991  -0.0635  1.2814
H       2.9366  -2.5246  0.3783
H       1.6740  -2.6175  -0.8305
H       -3.1569  -0.5068  -0.8625
H       -3.1469  -2.2510  -0.6967
H       1.7416  1.0239  -1.3772
H       1.2533  -0.2516  -2.2179
H       -1.9515  0.8261  1.1469
H       -1.1552  -0.0566  2.2268
H       -2.0424  -2.0768  1.4977
H       -3.3990  -0.9867  1.5328
H       0.6352  -2.2537  1.2586
H       1.5910  -0.9945  1.6140
H       3.3751  -0.9702  -1.6090
H       3.2246  -0.0982  -0.1019
H       -0.8914  -2.2909  -1.0897
H       -1.3038  -1.0109  -1.9905
