27

Co      0.0084  -0.0622  -0.0385
Cl      -1.1192  1.6662  -1.2319
Cl      1.1845  1.4827  1.4015
C       2.6404  -0.6981  -0.7635
C       2.1123  -1.9408  -0.1361
C       -2.5172  -1.2580  -0.4129
C       -2.4278  -1.1908  1.0759
N       1.4984  0.0536  -1.3517
N       1.1270  -1.5138  0.9021
N       -1.1200  -1.3102  -0.9751
N       -1.5365  -0.0462  1.3247
H       2.8185  -2.5141  0.4513
H       1.6977  -2.5963  -0.8958
H       -3.0562  -0.3714  -0.7188
H       -2.9752  -2.1365  -0.8843
H       1.6283  1.0586  -1.3097
H       1.0826  -0.1757  -2.2426
H       -1.9238  0.8621  1.0715
H       -1.1348  0.0434  2.2470
H       -2.0363  -2.1205  1.4639
H       -3.3679  -0.9898  1.5632
H       0.5810  -2.2686  1.2612
H       1.4454  -0.9040  1.6639
H       3.2712  -0.8157  -1.6445
H       3.1863  -0.1414  -0.0203
H       -0.6573  -2.2069  -0.9271
H       -1.0995  -0.9626  -1.9153
