27

Co      0.0088  0.0325  -0.0028
Cl      -1.0783  1.5865  -1.1943
Cl      1.1415  1.4062  1.3403
C       2.6280  -0.6963  -0.8199
C       2.1231  -1.9324  -0.0885
C       -2.5242  -1.2828  -0.4581
C       -2.3651  -1.1463  1.0478
N       1.4840  0.1103  -1.3228
N       1.1020  -1.5447  0.9311
N       -1.1642  -1.3973  -1.0923
N       -1.4819  0.0090  1.3593
H       2.9523  -2.4607  0.3571
H       1.6447  -2.6091  -0.7837
H       -2.9939  -0.4028  -0.8665
H       -3.1417  -2.1370  -0.6975
H       1.7313  1.0793  -1.4045
H       1.1893  -0.1842  -2.2333
H       -1.9634  0.8872  1.2810
H       -1.1180  -0.0335  2.2885
H       -1.9007  -2.0343  1.4595
H       -3.3362  -1.0417  1.5168
H       0.5825  -2.3480  1.2276
H       1.5345  -1.1474  1.7433
H       3.2803  -0.9860  -1.6294
H       3.1887  -0.0700  -0.1471
H       -0.8417  -2.3447  -1.0698
H       -1.2175  -1.1105  -2.0515
