27

Co      -0.0486  -0.0317  -0.0426
Cl      -1.0841  1.5991  -1.2039
Cl      1.2176  1.5273  1.4256
C       2.6651  -0.7320  -0.8199
C       2.1773  -1.9700  -0.0892
C       -2.6064  -1.3512  -0.4368
C       -2.4526  -1.1613  1.0510
N       1.4993  0.0857  -1.2857
N       1.1247  -1.5294  0.8786
N       -1.1982  -1.2038  -0.9628
N       -1.4233  -0.0935  1.2112
H       3.0001  -2.4551  0.4268
H       1.7450  -2.6963  -0.7638
H       -3.2369  -0.5890  -0.8907
H       -2.9948  -2.3380  -0.7017
H       1.7408  1.0733  -1.2217
H       1.2837  -0.0861  -2.2536
H       -1.8528  0.8144  1.1374
H       -1.0206  -0.1135  2.1293
H       -2.0938  -2.0670  1.5193
H       -3.3764  -0.8771  1.5432
H       0.6880  -2.3294  1.3122
H       1.5697  -0.9920  1.6178
H       3.2996  -0.9973  -1.6529
H       3.2379  -0.1153  -0.1474
H       -0.7634  -2.1122  -0.9634
H       -1.2488  -0.8972  -1.9168
