27

Co      0.0025  -0.0009  -0.0078
Cl      -1.0598  1.5804  -1.1981
Cl      1.1295  1.4099  1.3380
C       2.5819  -0.6800  -0.8616
C       2.0737  -1.8632  -0.1146
C       -2.4260  -1.2562  -0.4233
C       -2.3655  -1.0898  1.0517
N       1.5030  0.0888  -1.3338
N       0.9930  -1.5339  0.9232
N       -1.0794  -1.3629  -1.0843
N       -1.4645  -0.0353  1.4063
H       2.9508  -2.2330  0.4085
H       1.6805  -2.6716  -0.7263
H       -2.9640  -0.4674  -0.9183
H       -2.9716  -2.1826  -0.5684
H       1.7333  1.0611  -1.3675
H       1.1936  -0.1626  -2.2561
H       -1.8915  0.8677  1.3184
H       -1.1303  -0.0993  2.3437
H       -1.9814  -2.0061  1.4709
H       -3.3622  -0.9577  1.4442
H       0.4993  -2.3844  1.1443
H       1.3991  -1.1934  1.7787
H       3.3124  -0.9463  -1.6156
H       3.0811  -0.0782  -0.1234
H       -0.7827  -2.3159  -1.1456
H       -1.1770  -1.0151  -2.0211
