27

Co      0.0110  0.0617  0.0165
Cl      -1.0630  1.5764  -1.2110
Cl      1.0851  1.3233  1.2783
C       2.5341  -0.7044  -0.7968
C       2.0590  -1.8262  -0.1104
C       -2.4208  -1.2829  -0.4213
C       -2.3781  -1.0791  1.0363
N       1.5209  0.0644  -1.3204
N       1.1107  -1.5438  0.9151
N       -1.0892  -1.3256  -1.0818
N       -1.4595  -0.0494  1.4271
H       2.9794  -2.2382  0.3038
H       1.6394  -2.5828  -0.7554
H       -3.0085  -0.5318  -0.9293
H       -2.9235  -2.2398  -0.5402
H       1.8118  1.0133  -1.4499
H       1.2105  -0.2634  -2.2176
H       -1.8822  0.8663  1.4442
H       -1.0919  -0.2129  2.3462
H       -2.0404  -2.0007  1.4931
H       -3.3906  -0.9112  1.3884
H       0.6421  -2.4031  1.1536
H       1.5339  -1.1931  1.7555
H       3.2408  -1.0665  -1.5378
H       3.0875  -0.1109  -0.0998
H       -0.7567  -2.2615  -1.1339
H       -1.2017  -0.9832  -2.0175
