27

Co      -0.0063  -0.0307  -0.0020
Cl      -1.1100  1.6339  -1.2362
Cl      1.1813  1.4749  1.3827
C       2.7840  -0.7248  -0.8682
C       2.1901  -1.9844  -0.1310
C       -2.5637  -1.3234  -0.4145
C       -2.4904  -1.1735  1.0855
N       1.5716  0.0633  -1.3427
N       1.0595  -1.4564  0.8813
N       -1.1678  -1.2778  -1.0207
N       -1.5420  -0.0680  1.3652
H       2.8249  -2.5136  0.6085
H       1.8011  -2.7107  -0.8362
H       -3.2021  -0.5243  -0.7775
H       -2.9318  -2.2813  -0.8109
H       1.6837  1.0746  -1.2604
H       1.1011  -0.1154  -2.2347
H       -1.9021  0.8574  1.1568
H       -1.1439  -0.0344  2.2899
H       -2.1587  -2.1102  1.5096
H       -3.4266  -0.9070  1.5502
H       0.4558  -2.1976  1.1899
H       1.3643  -0.8919  1.6750
H       3.3714  -0.8063  -1.8040
H       3.3660  -0.1815  -0.1329
H       -0.6832  -2.1659  -1.1264
H       -1.1838  -0.7858  -1.9115
