27

Co      -0.0781  -0.0513  -0.0095
Cl      -1.1133  1.6791  -1.2417
Cl      1.2128  1.5325  1.4240
C       2.7199  -0.7365  -0.8179
C       2.1810  -1.9645  -0.1231
C       -2.5394  -1.2951  -0.4471
C       -2.4159  -1.1824  1.0496
N       1.5295  0.0206  -1.3222
N       1.0663  -1.5250  0.7941
N       -1.1099  -1.2831  -0.8985
N       -1.4400  -0.0833  1.2574
H       2.9490  -2.4757  0.4494
H       1.7819  -2.6709  -0.8376
H       -3.0401  -0.4464  -0.8793
H       -3.0298  -2.2023  -0.7789
H       1.7293  1.0115  -1.3278
H       1.3164  -0.2235  -2.2699
H       -1.8897  0.8089  1.1541
H       -1.0614  -0.0781  2.1889
H       -2.0096  -2.0909  1.4760
H       -3.3481  -0.9745  1.5446
H       0.6054  -2.3349  1.1664
H       1.4838  -1.0529  1.5814
H       3.3874  -0.9996  -1.6196
H       3.2481  -0.0994  -0.1294
H       -0.7019  -2.2040  -0.7566
H       -1.0827  -1.0973  -1.8922
