27

Co      0.0560  0.0435  0.0624
Cl      -1.0813  1.5839  -1.2175
Cl      1.0789  1.3104  1.2584
C       2.6000  -0.7237  -0.7897
C       2.0921  -1.8484  -0.0755
C       -2.5019  -1.3190  -0.4499
C       -2.3874  -1.1122  1.0409
N       1.4871  0.0732  -1.2479
N       1.1130  -1.4136  0.7949
N       -1.1619  -1.3430  -1.1070
N       -1.4589  -0.0101  1.3838
H       2.8912  -2.3726  0.4107
H       1.6491  -2.5334  -0.7855
H       -3.0432  -0.5034  -0.8819
H       -3.0554  -2.2260  -0.6417
H       1.7650  1.0232  -1.4277
H       1.1401  -0.2895  -2.1227
H       -1.8989  0.8905  1.3236
H       -1.1356  -0.1018  2.3238
H       -2.0237  -2.0058  1.5333
H       -3.3792  -0.9171  1.4296
H       0.5359  -2.1926  1.0532
H       1.5239  -1.0532  1.6371
H       3.1461  -1.1402  -1.6395
H       3.2898  -0.1146  -0.2099
H       -0.8378  -2.2825  -1.2193
H       -1.2568  -0.9312  -2.0225
