27

Co      0.0035  -0.0187  0.0069
Cl      -1.0663  1.5684  -1.1961
Cl      1.1260  1.3864  1.3231
C       2.6285  -0.6826  -0.8239
C       2.0907  -1.8976  -0.0842
C       -2.4965  -1.3040  -0.4466
C       -2.3868  -1.1103  1.0583
N       1.4769  0.1126  -1.3078
N       1.0676  -1.4501  0.9020
N       -1.1298  -1.2664  -1.0747
N       -1.4357  -0.0134  1.3391
H       2.8828  -2.4402  0.3980
H       1.6011  -2.5749  -0.7734
H       -3.0683  -0.5042  -0.8852
H       -2.9887  -2.2372  -0.6698
H       1.6942  1.0904  -1.3416
H       1.2003  -0.1509  -2.2351
H       -1.8688  0.8907  1.2444
H       -1.0831  -0.0496  2.2710
H       -2.0102  -2.0049  1.5333
H       -3.3589  -0.9038  1.4811
H       0.5631  -2.2350  1.2611
H       1.5158  -0.9987  1.6791
H       3.2624  -0.9887  -1.6442
H       3.2068  -0.0638  -0.1635
H       -0.7751  -2.1982  -1.1901
H       -1.2150  -0.8469  -1.9882
