27

Co      -0.0316  -0.0291  -0.0544
Cl      -1.0751  1.6051  -1.2069
Cl      1.2116  1.5249  1.4286
C       2.6455  -0.7125  -0.7600
C       2.1671  -2.0175  -0.0628
C       -2.5672  -1.3732  -0.4624
C       -2.4600  -1.1727  1.0760
N       1.3989  0.0867  -1.2808
N       1.1070  -1.5050  0.8073
N       -1.1517  -1.2370  -0.9818
N       -1.4060  -0.0653  1.2777
H       2.9168  -2.6162  0.4509
H       1.7117  -2.6394  -0.8286
H       -3.1100  -0.5273  -0.8588
H       -3.0330  -2.2843  -0.8235
H       1.6211  1.0688  -1.3235
H       1.1861  -0.1874  -2.2209
H       -1.8339  0.8489  1.2664
H       -0.9630  -0.1368  2.1807
H       -2.1566  -2.0591  1.6274
H       -3.4092  -0.8344  1.4923
H       0.5831  -2.2415  1.2498
H       1.5340  -0.9624  1.5533
H       3.2315  -0.9690  -1.6284
H       3.2265  -0.0512  -0.1355
H       -0.6965  -2.1362  -0.9509
H       -1.1950  -0.9542  -1.9438
