27

Co      -0.0028  0.0036  -0.0093
Cl      -1.0740  1.5951  -1.2026
Cl      1.1959  1.5141  1.4089
C       2.6938  -0.7363  -0.7855
C       2.1708  -1.9755  -0.0752
C       -2.5947  -1.3554  -0.4577
C       -2.4558  -1.2001  1.0558
N       1.4709  0.0661  -1.3366
N       1.0435  -1.4875  0.7387
N       -1.1805  -1.3270  -0.9633
N       -1.4498  -0.0650  1.2939
H       2.7885  -2.5459  0.6584
H       1.8538  -2.6516  -0.8803
H       -3.1493  -0.4802  -0.7658
H       -3.0295  -2.2473  -0.9448
H       1.6272  1.0589  -1.3626
H       1.0170  -0.2045  -2.2026
H       -1.8231  0.8617  1.1954
H       -0.9798  -0.0952  2.1843
H       -2.1437  -2.1231  1.5254
H       -3.3651  -0.8603  1.5535
H       0.3553  -2.2051  0.9591
H       1.2632  -0.9748  1.6059
H       3.1531  -0.9553  -1.7679
H       3.3951  -0.1424  -0.1927
H       -0.6443  -2.1929  -0.8634
H       -1.1226  -1.0169  -1.9185
