27

Co      -0.0013  0.0362  0.0158
Cl      -1.0868  1.6260  -1.2322
Cl      1.1181  1.3842  1.3192
C       2.6126  -0.7294  -0.7682
C       2.1053  -1.8830  -0.0955
C       -2.4580  -1.2964  -0.4379
C       -2.4259  -1.1563  1.0590
N       1.5121  0.0333  -1.3414
N       1.0909  -1.5167  0.7799
N       -1.0691  -1.3016  -0.9618
N       -1.4799  -0.0633  1.3959
H       2.9190  -2.3987  0.3880
H       1.7052  -2.5609  -0.8347
H       -2.9496  -0.4459  -0.8676
H       -2.9871  -2.1840  -0.7422
H       1.7793  0.9882  -1.5091
H       1.2469  -0.3400  -2.2367
H       -1.9254  0.8364  1.3799
H       -1.1045  -0.1726  2.3193
H       -2.0865  -2.0624  1.5500
H       -3.4243  -0.9487  1.4235
H       0.5544  -2.3281  1.0271
H       1.4754  -1.1525  1.6361
H       3.2484  -1.1258  -1.5481
H       3.2057  -0.0901  -0.1418
H       -0.6796  -2.2209  -0.8820
H       -1.0995  -1.0670  -1.9368
