27

Co      -0.0051  -0.0661  -0.0209
Cl      -1.0852  1.6124  -1.2061
Cl      1.1945  1.5049  1.4133
C       2.7102  -0.6687  -0.8613
C       2.1215  -1.9649  -0.1185
C       -2.5326  -1.3019  -0.4465
C       -2.4182  -1.1483  1.0758
N       1.4771  0.0833  -1.3376
N       0.9870  -1.4445  0.8939
N       -1.1380  -1.3199  -1.0477
N       -1.4653  -0.0382  1.3213
H       2.8537  -2.5125  0.4577
H       1.6372  -2.6511  -0.8019
H       -3.0493  -0.4595  -0.8759
H       -3.0610  -2.2038  -0.7134
H       1.6289  1.0817  -1.3533
H       1.2055  -0.1759  -2.2674
H       -1.9016  0.8562  1.1408
H       -1.1396  0.0064  2.2727
H       -2.0167  -2.0460  1.5173
H       -3.3729  -0.9589  1.5315
H       0.4599  -2.2104  1.2669
H       1.4405  -0.9905  1.6665
H       3.4282  -0.8323  -1.6610
H       3.1670  -0.0319  -0.1124
H       -0.8070  -2.2674  -1.1344
H       -1.1976  -0.9344  -1.9745
