27

Co      -0.0139  0.0152  -0.0053
Cl      -1.0902  1.6146  -1.2119
Cl      1.2016  1.5048  1.4205
C       2.6970  -0.7114  -0.7799
C       2.1148  -1.9268  -0.1470
C       -2.5973  -1.3373  -0.4391
C       -2.4514  -1.1841  1.0343
N       1.5638  0.0196  -1.4290
N       1.1042  -1.5189  0.8811
N       -1.2008  -1.3411  -0.9789
N       -1.4819  -0.0956  1.2947
H       2.7955  -2.5330  0.4533
H       1.7030  -2.5643  -0.9263
H       -3.2089  -0.5219  -0.8048
H       -2.9987  -2.2765  -0.8239
H       1.7075  1.0124  -1.4965
H       1.1252  -0.3089  -2.2796
H       -1.8531  0.8347  1.1885
H       -1.0301  -0.1336  2.1921
H       -2.1050  -2.1315  1.4299
H       -3.3600  -0.9138  1.5597
H       0.5264  -2.2904  1.1492
H       1.4048  -0.9941  1.6944
H       3.3564  -0.8802  -1.6244
H       3.2325  -0.1354  -0.0410
H       -0.7024  -2.2239  -0.9044
H       -1.1574  -1.0143  -1.9243
