27

Co      0.0470  -0.0160  0.0190
Cl      -1.0691  1.5897  -1.2035
Cl      1.1172  1.4016  1.3253
C       2.5374  -0.6924  -0.7948
C       2.0441  -1.8242  -0.0589
C       -2.4743  -1.2889  -0.4449
C       -2.3753  -1.1275  1.0466
N       1.4619  0.1062  -1.3389
N       1.0174  -1.4989  0.8176
N       -1.1061  -1.3321  -1.0245
N       -1.4303  -0.0303  1.3360
H       2.8772  -2.3040  0.4222
H       1.6490  -2.5353  -0.7737
H       -2.9694  -0.4404  -0.8670
H       -3.0340  -2.1730  -0.7048
H       1.7195  1.0675  -1.4348
H       1.1797  -0.2055  -2.2480
H       -1.8639  0.8679  1.2356
H       -1.0972  -0.0699  2.2723
H       -2.0114  -2.0238  1.5284
H       -3.3555  -0.9203  1.4520
H       0.4496  -2.3160  0.9950
H       1.3734  -1.1806  1.7124
H       3.1203  -1.1461  -1.5979
H       3.1923  -0.0547  -0.2179
H       -0.7730  -2.2694  -1.0390
H       -1.1567  -1.0139  -1.9744
