27

Co      -0.0138  -0.0009  0.0407
Cl      -1.0938  1.6390  -1.2357
Cl      1.1125  1.3625  1.3110
C       2.6587  -0.6692  -0.7963
C       2.0742  -1.8993  -0.1230
C       -2.4401  -1.2858  -0.4650
C       -2.3529  -1.1050  1.0498
N       1.5003  0.0584  -1.3666
N       1.0793  -1.4771  0.9132
N       -1.0831  -1.3792  -1.1009
N       -1.4432  0.0052  1.4262
H       2.8413  -2.5353  0.3015
H       1.5338  -2.4884  -0.8657
H       -2.9224  -0.4303  -0.9037
H       -3.0380  -2.1576  -0.6811
H       1.6883  1.0307  -1.5297
H       1.2153  -0.3342  -2.2530
H       -1.8860  0.9094  1.3912
H       -1.0791  -0.0953  2.3550
H       -1.9588  -2.0029  1.5063
H       -3.3461  -0.9589  1.4454
H       0.5710  -2.2727  1.2403
H       1.5444  -1.0781  1.7063
H       3.3731  -0.9558  -1.5563
H       3.1525  -0.0294  -0.0890
H       -0.7631  -2.3253  -1.1443
H       -1.1348  -1.0188  -2.0304
