27

Co      0.0757  0.0579  0.0143
Cl      -1.0603  1.5678  -1.2094
Cl      1.1070  1.3687  1.3118
C       2.5481  -0.6986  -0.7779
C       2.0643  -1.8753  -0.0619
C       -2.4965  -1.3709  -0.4525
C       -2.4567  -1.1184  1.0644
N       1.4196  0.0640  -1.2702
N       1.0535  -1.4426  0.7777
N       -1.1325  -1.3012  -1.0659
N       -1.4307  -0.0781  1.3890
H       2.9738  -2.3743  0.2936
H       1.5709  -2.5493  -0.7433
H       -2.9960  -0.5762  -0.9905
H       -3.0855  -2.2887  -0.5432
H       1.7720  0.9900  -1.5906
H       1.2771  -0.4071  -2.1751
H       -1.9120  0.8153  1.4434
H       -1.1462  -0.2487  2.3447
H       -2.1689  -1.9915  1.6621
H       -3.4918  -0.8695  1.3391
H       0.5208  -2.2426  1.0653
H       1.5911  -1.2124  1.6214
H       3.2555  -1.1802  -1.4729
H       3.0838  0.0112  -0.1668
H       -0.8862  -2.2716  -1.1853
H       -1.3071  -0.9887  -2.0144
