27

Co      0.0103  -0.0307  -0.0331
Cl      -1.1100  1.6297  -1.2321
Cl      1.1813  1.4770  1.3868
C       2.7533  -0.7161  -0.8805
C       2.1947  -2.0100  -0.1025
C       -2.5616  -1.3241  -0.4136
C       -2.5198  -1.1901  1.1112
N       1.5306  0.0931  -1.3180
N       1.0534  -1.4826  0.8988
N       -1.1442  -1.2182  -0.9829
N       -1.5512  -0.0804  1.3499
H       2.9533  -2.5053  0.4896
H       1.7372  -2.7398  -0.7565
H       -3.1296  -0.5097  -0.8413
H       -2.9977  -2.2639  -0.7380
H       1.7299  1.0862  -1.2796
H       1.2673  -0.0999  -2.2699
H       -1.9926  0.8090  1.1641
H       -1.2281  -0.0356  2.3064
H       -2.1601  -2.0905  1.5869
H       -3.4940  -0.9652  1.5180
H       0.5282  -2.2510  1.2805
H       1.5009  -1.0087  1.6664
H       3.4327  -0.8924  -1.7099
H       3.2593  -0.0978  -0.1530
H       -0.7565  -2.1454  -1.0948
H       -1.2275  -0.8150  -1.9047
