27

Co      0.0233  0.0351  -0.0096
Cl      -1.0615  1.5890  -1.2109
Cl      1.1367  1.4195  1.3414
C       2.5879  -0.7000  -0.8068
C       2.1306  -1.9543  -0.0827
C       -2.4797  -1.3368  -0.4503
C       -2.4117  -1.1094  1.0585
N       1.3992  0.0753  -1.2408
N       1.0296  -1.5014  0.8187
N       -1.1137  -1.3618  -1.0805
N       -1.4135  -0.0549  1.3930
H       2.9408  -2.3906  0.4839
H       1.7467  -2.7074  -0.7587
H       -3.0127  -0.5288  -0.9183
H       -3.0163  -2.2529  -0.6534
H       1.6425  1.0385  -1.3754
H       1.0603  -0.2470  -2.1327
H       -1.8260  0.8657  1.4017
H       -1.0265  -0.1923  2.3106
H       -2.1183  -2.0173  1.5718
H       -3.3985  -0.8433  1.4201
H       0.4485  -2.2737  1.0870
H       1.4292  -1.1253  1.6615
H       3.2164  -0.9257  -1.6533
H       3.1458  -0.0749  -0.1317
H       -0.7580  -2.2909  -1.1147
H       -1.2085  -1.0353  -2.0255
