27

Co      0.0182  0.0380  -0.0012
Cl      -1.0982  1.6224  -1.2316
Cl      1.1265  1.3843  1.3211
C       2.6878  -0.7297  -0.8249
C       2.1632  -1.9558  -0.1009
C       -2.4740  -1.2916  -0.4279
C       -2.4553  -1.1658  1.0950
N       1.5188  0.0626  -1.3009
N       1.0954  -1.4935  0.8380
N       -1.1055  -1.3451  -1.0627
N       -1.5706  -0.0218  1.4730
H       2.9498  -2.4612  0.4324
H       1.7260  -2.6547  -0.7942
H       -2.9469  -0.4152  -0.8372
H       -3.0562  -2.1519  -0.7195
H       1.7674  1.0272  -1.4188
H       1.2137  -0.2542  -2.2040
H       -2.0360  0.8609  1.3891
H       -1.2291  -0.0858  2.4161
H       -2.0730  -2.0565  1.5727
H       -3.4776  -1.0273  1.4364
H       0.5347  -2.2728  1.1330
H       1.5122  -1.0968  1.6590
H       3.3307  -1.0014  -1.6452
H       3.2492  -0.1077  -0.1489
H       -0.7614  -2.2849  -1.1077
H       -1.1958  -1.0054  -2.0029
