27

Co      0.0018  0.0247  0.0018
Cl      -1.0672  1.5631  -1.1832
Cl      1.1304  1.3904  1.3291
C       2.6776  -0.6995  -0.8492
C       2.1217  -1.9237  -0.0832
C       -2.5136  -1.2731  -0.4599
C       -2.3995  -1.1698  1.0695
N       1.4967  0.0869  -1.3122
N       1.0350  -1.4526  0.8347
N       -1.1133  -1.2904  -0.9978
N       -1.4948  -0.0137  1.3348
H       2.9865  -2.4491  0.3166
H       1.5956  -2.6000  -0.7451
H       -2.9194  -0.3864  -0.9340
H       -3.1634  -2.1225  -0.6522
H       1.7994  1.0410  -1.4831
H       1.4050  -0.2694  -2.2673
H       -2.0574  0.8254  1.2429
H       -1.2383  -0.0141  2.3089
H       -1.9019  -2.0265  1.5258
H       -3.4003  -1.1073  1.4929
H       0.5675  -2.2648  1.2061
H       1.6018  -1.1563  1.6293
H       3.4151  -1.1117  -1.5478
H       3.1671  0.0070  -0.1920
H       -0.8745  -2.2724  -0.9791
H       -1.2000  -1.0835  -1.9846
