27

Co      -0.0358  -0.0173  -0.0521
Cl      -1.0978  1.6484  -1.2324
Cl      1.2007  1.5172  1.4109
C       2.6367  -0.7403  -0.8218
C       2.2019  -1.9985  -0.0810
C       -2.5139  -1.3160  -0.4300
C       -2.4461  -1.1628  1.0771
N       1.4626  0.0824  -1.2625
N       1.0887  -1.5971  0.8438
N       -1.1182  -1.3045  -0.9892
N       -1.4693  -0.0706  1.3411
H       3.0475  -2.4047  0.4765
H       1.8416  -2.7745  -0.7466
H       -3.0331  -0.4810  -0.8694
H       -3.0209  -2.2247  -0.7254
H       1.7160  1.0621  -1.2281
H       1.2170  -0.0993  -2.2218
H       -1.9062  0.8305  1.2947
H       -1.0644  -0.1325  2.2601
H       -2.1009  -2.0633  1.5608
H       -3.4202  -0.9272  1.4776
H       0.5984  -2.4053  1.1752
H       1.4812  -1.1370  1.6517
H       3.2557  -0.9810  -1.6695
H       3.2113  -0.1187  -0.1559
H       -0.7178  -2.2250  -0.9337
H       -1.1781  -1.0608  -1.9642
