27

Co      0.0047  0.0261  0.0145
Cl      -1.0899  1.5994  -1.2156
Cl      1.1056  1.3407  1.2974
C       2.6774  -0.6934  -0.8125
C       2.1061  -1.9152  -0.1073
C       -2.4770  -1.2757  -0.4408
C       -2.4088  -1.1483  1.0749
N       1.5381  0.0861  -1.3644
N       1.1227  -1.4838  0.9313
N       -1.1062  -1.2995  -1.0588
N       -1.5303  0.0004  1.4210
H       2.8947  -2.5210  0.3167
H       1.5711  -2.5317  -0.8253
H       -2.9794  -0.4151  -0.8483
H       -3.0303  -2.1535  -0.7186
H       1.7647  1.0559  -1.4711
H       1.2671  -0.2466  -2.2723
H       -2.0032  0.8829  1.3275
H       -1.1839  -0.0424  2.3589
H       -1.9822  -2.0390  1.5208
H       -3.4097  -1.0319  1.4759
H       0.6195  -2.2757  1.2838
H       1.5886  -1.0523  1.7068
H       3.3663  -0.9983  -1.5894
H       3.2071  -0.0670  -0.1200
H       -0.7579  -2.2368  -1.1092
H       -1.1728  -0.9373  -1.9901
