27

Co      -0.0347  -0.0189  -0.0471
Cl      -1.1091  1.6630  -1.2369
Cl      1.2016  1.5006  1.4127
C       2.6458  -0.7264  -0.7398
C       2.1709  -2.0011  -0.1455
C       -2.5457  -1.3108  -0.4223
C       -2.4438  -1.1751  1.0548
N       1.4620  0.0114  -1.2701
N       1.1708  -1.5275  0.8540
N       -1.1362  -1.2783  -0.9452
N       -1.4619  -0.0973  1.2835
H       2.8843  -2.5322  0.4836
H       1.7987  -2.6924  -0.8943
H       -3.1591  -0.4935  -0.7795
H       -2.9185  -2.2545  -0.8496
H       1.6112  1.0117  -1.2566
H       1.0323  -0.2251  -2.1540
H       -1.8233  0.8383  1.1623
H       -0.9906  -0.1088  2.1765
H       -2.1268  -2.1228  1.4726
H       -3.3606  -0.8732  1.5483
H       0.6506  -2.2696  1.2833
H       1.5063  -0.8625  1.5811
H       3.2700  -0.7646  -1.6538
H       3.1803  -0.1800  0.0251
H       -0.6085  -2.1493  -0.8341
H       -1.1122  -0.9887  -1.9033
