27

Co      -0.0339  0.0166  -0.0507
Cl      -1.1077  1.6336  -1.2200
Cl      1.2042  1.5001  1.4069
C       2.7077  -0.7652  -0.8209
C       2.2303  -2.0115  -0.1031
C       -2.5700  -1.2971  -0.4238
C       -2.4738  -1.2169  1.0822
N       1.5301  0.0551  -1.2761
N       1.1497  -1.5617  0.8341
N       -1.1627  -1.2937  -0.9563
N       -1.5609  -0.0630  1.3285
H       3.0505  -2.4706  0.4446
H       1.8337  -2.7511  -0.7818
H       -3.0627  -0.4221  -0.8205
H       -3.0929  -2.1775  -0.7736
H       1.7973  1.0323  -1.2766
H       1.2887  -0.1560  -2.2253
H       -2.0479  0.8069  1.2154
H       -1.1861  -0.0578  2.2633
H       -2.0397  -2.1102  1.5114
H       -3.4423  -1.0673  1.5347
H       0.6679  -2.3560  1.2203
H       1.5717  -1.0678  1.6061
H       3.3456  -1.0018  -1.6567
H       3.2692  -0.1481  -0.1357
H       -0.7609  -2.2185  -0.8560
H       -1.2017  -1.0891  -1.9454
