27

Co      0.0467  0.0041  0.0437
Cl      -1.1139  1.6737  -1.2595
Cl      1.1236  1.4002  1.3268
C       2.6045  -0.7188  -0.7761
C       2.0867  -1.8626  -0.0963
C       -2.4538  -1.3076  -0.4444
C       -2.4073  -1.1343  1.0612
N       1.4955  0.0360  -1.3207
N       1.0727  -1.4886  0.7796
N       -1.1106  -1.4376  -1.0941
N       -1.4972  -0.0259  1.4577
H       2.8855  -2.3962  0.3865
H       1.6661  -2.5234  -0.8393
H       -2.8969  -0.4256  -0.8673
H       -3.0972  -2.1503  -0.6830
H       1.7468  0.9896  -1.5320
H       1.1808  -0.3708  -2.1915
H       -1.9304  0.8746  1.4026
H       -1.1684  -0.1334  2.4016
H       -2.0662  -2.0283  1.5659
H       -3.4277  -0.9573  1.3859
H       0.4831  -2.2898  0.9644
H       1.4482  -1.1821  1.6689
H       3.2188  -1.1229  -1.5679
H       3.2185  -0.0795  -0.1645
H       -0.8125  -2.3911  -1.1431
H       -1.1880  -1.0954  -2.0323
