27

Co      0.0293  0.0378  -0.0119
Cl      -1.0866  1.6025  -1.2173
Cl      1.1484  1.4078  1.3500
C       2.5611  -0.7195  -0.7923
C       2.0956  -1.8768  -0.1178
C       -2.4957  -1.3229  -0.4263
C       -2.4247  -1.1054  1.0549
N       1.4875  0.0326  -1.2308
N       1.1548  -1.4869  0.8715
N       -1.1737  -1.3587  -1.1377
N       -1.4998  -0.0579  1.3996
H       3.0905  -2.3057  0.1839
H       1.5790  -2.6031  -0.7250
H       -3.0116  -0.5488  -0.9903
H       -3.1208  -2.2490  -0.4190
H       1.8515  0.9667  -1.4622
H       1.3591  -0.3537  -2.1638
H       -2.0025  0.8202  1.4046
H       -1.2321  -0.1905  2.3665
H       -2.0402  -1.9818  1.5594
H       -3.4676  -0.9926  1.3639
H       0.7625  -2.3339  1.2720
H       1.7578  -1.1632  1.6316
H       3.3646  -1.1110  -1.4427
H       3.0197  -0.0574  -0.0735
H       -0.9859  -2.3574  -1.2814
H       -1.3913  -1.0401  -2.0820
