27

Co      -0.0531  -0.0346  -0.0429
Cl      -1.0755  1.5781  -1.1953
Cl      1.2089  1.5140  1.4194
C       2.7056  -0.7418  -0.8112
C       2.1620  -1.9382  -0.1153
C       -2.5810  -1.3234  -0.4090
C       -2.4828  -1.1823  1.0644
N       1.5704  0.0614  -1.3598
N       1.1129  -1.4924  0.8511
N       -1.1703  -1.1701  -0.9265
N       -1.4977  -0.0967  1.2614
H       2.8561  -2.4509  0.5606
H       1.8074  -2.6652  -0.8407
H       -3.2757  -0.5578  -0.7694
H       -2.8595  -2.3220  -0.8412
H       1.7295  1.0679  -1.2258
H       1.1841  -0.0815  -2.2839
H       -1.8591  0.8333  1.1028
H       -1.0409  -0.0742  2.1582
H       -2.1585  -2.1219  1.4938
H       -3.3949  -0.8698  1.5674
H       0.5921  -2.2614  1.2164
H       1.4035  -0.8512  1.6147
H       3.2719  -0.9298  -1.7248
H       3.3343  -0.1943  -0.1230
H       -0.6096  -2.0297  -0.9199
H       -1.1586  -0.7802  -1.8528
