27

Co      -0.0025  -0.0041  0.0045
Cl      -1.1086  1.6240  -1.2135
Cl      1.1710  1.4437  1.3663
C       2.7084  -0.7352  -0.7845
C       2.1617  -1.9475  -0.1419
C       -2.5983  -1.2814  -0.4307
C       -2.4163  -1.1970  1.0411
N       1.5343  0.0269  -1.2869
N       1.1527  -1.4428  0.8352
N       -1.1968  -1.3083  -0.9672
N       -1.5140  -0.0500  1.2565
H       2.8291  -2.5132  0.5150
H       1.7661  -2.6311  -0.8887
H       -3.1789  -0.4275  -0.7480
H       -3.0244  -2.1919  -0.8594
H       1.6856  1.0255  -1.2894
H       1.0667  -0.2196  -2.1551
H       -1.9204  0.8517  1.0193
H       -1.1204  0.0365  2.1797
H       -1.9806  -2.1311  1.3903
H       -3.3169  -1.0023  1.6184
H       0.5870  -2.1792  1.2105
H       1.4815  -0.8345  1.5917
H       3.2790  -0.8580  -1.7164
H       3.3173  -0.1969  -0.0677
H       -0.7198  -2.1993  -0.8912
H       -1.1504  -0.9762  -1.9130
