27

Co      0.0082  0.0569  0.0073
Cl      -1.0402  1.5401  -1.1785
Cl      1.1099  1.3730  1.3100
C       2.5544  -0.7071  -0.8067
C       2.0846  -1.8682  -0.0461
C       -2.4741  -1.3071  -0.4673
C       -2.3755  -1.1241  1.0443
N       1.4459  0.0987  -1.2950
N       1.0363  -1.5126  0.7951
N       -1.0997  -1.3098  -1.0208
N       -1.4106  -0.0301  1.3476
H       3.0210  -2.3239  0.3138
H       1.6303  -2.5807  -0.7154
H       -2.9149  -0.4662  -0.9815
H       -3.1103  -2.1853  -0.5944
H       1.8063  1.0319  -1.5089
H       1.3450  -0.2829  -2.2394
H       -1.9363  0.8390  1.4032
H       -1.0960  -0.1678  2.2895
H       -1.9734  -1.9882  1.5651
H       -3.3880  -0.9731  1.4088
H       0.5533  -2.3553  1.0592
H       1.5438  -1.2837  1.6579
H       3.2260  -1.2403  -1.5130
H       3.1346  0.0032  -0.2321
H       -0.8397  -2.2770  -0.9803
H       -1.2055  -1.1294  -2.0153
