27

Co      0.0611  0.0582  0.0182
Cl      -1.0772  1.5653  -1.1928
Cl      1.1118  1.3554  1.3107
C       2.6432  -0.6719  -0.8314
C       2.0799  -1.9112  -0.0822
C       -2.5497  -1.3169  -0.4661
C       -2.4159  -1.1553  1.0624
N       1.4899  0.1076  -1.3521
N       1.0797  -1.4743  0.9363
N       -1.1744  -1.3396  -1.0805
N       -1.4934  -0.0171  1.3581
H       2.9708  -2.5080  0.2014
H       1.4659  -2.5174  -0.7596
H       -2.9859  -0.4531  -0.9560
H       -3.2109  -2.1786  -0.5901
H       1.8031  1.0510  -1.6081
H       1.3657  -0.3270  -2.2728
H       -2.0436  0.8339  1.3026
H       -1.2406  -0.0697  2.3313
H       -1.9484  -2.0143  1.5382
H       -3.4238  -1.0708  1.4676
H       0.5914  -2.2852  1.2782
H       1.6792  -1.2200  1.7321
H       3.4263  -1.0904  -1.4952
H       3.1007  0.0392  -0.1533
H       -0.9671  -2.3312  -1.1577
H       -1.3017  -1.0494  -2.0376
