27

Co      -0.0421  -0.0532  -0.0542
Cl      -1.1021  1.6569  -1.2366
Cl      1.2050  1.5277  1.4193
C       2.6533  -0.7427  -0.8075
C       2.1847  -1.9704  -0.1034
C       -2.4885  -1.2900  -0.4058
C       -2.4543  -1.1691  1.0849
N       1.5061  0.0691  -1.3126
N       1.0860  -1.5766  0.8383
N       -1.0977  -1.2910  -0.9768
N       -1.5125  -0.0664  1.3692
H       2.9163  -2.4004  0.5956
H       1.8949  -2.7470  -0.8162
H       -3.0718  -0.4535  -0.7554
H       -2.8985  -2.2106  -0.8485
H       1.6679  1.0733  -1.1715
H       1.0953  -0.0524  -2.2393
H       -1.8702  0.8622  1.2288
H       -1.0516  -0.0767  2.2670
H       -2.1453  -2.1017  1.5318
H       -3.4093  -0.8943  1.5054
H       0.5319  -2.3576  1.1217
H       1.3316  -0.9925  1.6578
H       3.1948  -0.8933  -1.7469
H       3.2893  -0.1940  -0.1277
H       -0.5860  -2.1681  -0.9325
H       -1.1008  -0.9475  -1.9186
