27

Co      -0.0722  -0.0539  -0.0104
Cl      -1.1021  1.6575  -1.2443
Cl      1.1980  1.5071  1.4082
C       2.7542  -0.6969  -0.8687
C       2.1747  -1.9967  -0.1192
C       -2.5162  -1.3332  -0.4470
C       -2.4405  -1.1350  1.0715
N       1.5268  0.0702  -1.3583
N       1.0306  -1.5221  0.9136
N       -1.1063  -1.2604  -0.9989
N       -1.4272  -0.0736  1.3339
H       2.9255  -2.5377  0.4414
H       1.7011  -2.6864  -0.8032
H       -3.0933  -0.5487  -0.9238
H       -2.9576  -2.2923  -0.7015
H       1.6869  1.0702  -1.3242
H       1.2952  -0.1490  -2.3121
H       -1.8404  0.8439  1.2790
H       -1.0326  -0.1310  2.2584
H       -2.1036  -2.0455  1.5472
H       -3.3935  -0.8766  1.5000
H       0.5632  -2.3228  1.2996
H       1.4843  -1.0477  1.6801
H       3.4707  -0.8799  -1.6652
H       3.2211  -0.0617  -0.1287
H       -0.7040  -2.1813  -1.0443
H       -1.1472  -0.9023  -1.9320
