27

Co      -0.0018  -0.0331  -0.0018
Cl      -1.1013  1.6414  -1.2284
Cl      1.1700  1.4632  1.3752
C       2.6374  -0.7078  -0.7928
C       2.1284  -1.9296  -0.1149
C       -2.5275  -1.3004  -0.4345
C       -2.3936  -1.1404  1.0459
N       1.4890  0.0714  -1.3126
N       1.1015  -1.5150  0.8866
N       -1.1573  -1.3560  -1.0491
N       -1.4567  -0.0380  1.3256
H       2.8384  -2.4547  0.5126
H       1.7495  -2.6324  -0.8511
H       -3.1174  -0.4716  -0.7895
H       -2.9770  -2.2194  -0.7965
H       1.6337  1.0700  -1.2752
H       1.0244  -0.1457  -2.1934
H       -1.8180  0.8924  1.1746
H       -1.0256  -0.0456  2.2305
H       -2.0418  -2.0744  1.4569
H       -3.3218  -0.8892  1.5367
H       0.5273  -2.2801  1.1728
H       1.3934  -0.9625  1.6938
H       3.1988  -0.8619  -1.7193
H       3.2595  -0.1601  -0.1002
H       -0.6988  -2.2499  -1.0524
H       -1.1538  -0.9577  -1.9711
