27

Co      0.0051  0.0750  0.0150
Cl      -1.0826  1.6175  -1.2279
Cl      1.1138  1.3737  1.3107
C       2.6509  -0.7039  -0.8228
C       2.1456  -1.9689  -0.0876
C       -2.4920  -1.3224  -0.4678
C       -2.4236  -1.1499  1.0598
N       1.4541  0.0552  -1.2913
N       1.0474  -1.5256  0.8315
N       -1.0809  -1.3180  -0.9770
N       -1.4309  -0.0704  1.3707
H       3.0357  -2.4665  0.3035
H       1.6490  -2.6548  -0.7565
H       -2.9194  -0.4763  -0.9989
H       -3.1095  -2.2040  -0.6220
H       1.7696  0.9972  -1.5541
H       1.3282  -0.3695  -2.2163
H       -1.9556  0.8017  1.4255
H       -1.1202  -0.2083  2.3211
H       -2.0392  -2.0298  1.5675
H       -3.4295  -0.9846  1.4274
H       0.5574  -2.3440  1.1528
H       1.6077  -1.2826  1.6589
H       3.4161  -1.0633  -1.5169
H       3.1017  0.0084  -0.1410
H       -0.8085  -2.2835  -0.9006
H       -1.1625  -1.1659  -1.9795
