27

Co      0.0763  0.0247  0.0042
Cl      -1.0673  1.5802  -1.2052
Cl      1.1084  1.3700  1.3148
C       2.4829  -0.6828  -0.7839
C       2.0235  -1.8148  -0.1089
C       -2.4511  -1.2951  -0.4189
C       -2.3810  -1.0778  1.0407
N       1.4546  0.0691  -1.2786
N       1.0790  -1.4939  0.8980
N       -1.1394  -1.3942  -1.1489
N       -1.4636  -0.0457  1.4091
H       2.9372  -2.2186  0.3221
H       1.6025  -2.5762  -0.7495
H       -3.0174  -0.5242  -0.9110
H       -3.0092  -2.2283  -0.5133
H       1.7338  1.0191  -1.4407
H       1.1071  -0.2814  -2.1572
H       -1.8733  0.8692  1.3416
H       -1.1464  -0.1508  2.3495
H       -2.0502  -1.9930  1.5068
H       -3.3935  -0.9010  1.3873
H       0.5599  -2.3220  1.1271
H       1.5011  -1.1544  1.7427
H       3.1875  -1.0070  -1.5363
H       3.0261  -0.0885  -0.0770
H       -0.8707  -2.3539  -1.2913
H       -1.2927  -0.9856  -2.0645
