27

Co      0.0506  0.0312  0.0512
Cl      -1.0935  1.6423  -1.2494
Cl      1.1066  1.3804  1.2998
C       2.6257  -0.6991  -0.8508
C       2.1354  -1.9396  -0.0659
C       -2.4855  -1.3507  -0.4734
C       -2.4035  -1.1030  1.0557
N       1.4086  0.0750  -1.2176
N       0.9851  -1.4676  0.7861
N       -1.1107  -1.3898  -1.0842
N       -1.3864  -0.0526  1.3897
H       3.0071  -2.3848  0.3980
H       1.6756  -2.6771  -0.7088
H       -2.9261  -0.5289  -1.0266
H       -3.1403  -2.2412  -0.5399
H       1.7110  1.0181  -1.4707
H       1.2189  -0.3251  -2.1329
H       -1.8700  0.8365  1.4167
H       -1.1194  -0.1960  2.3562
H       -2.0702  -1.9781  1.6073
H       -3.4162  -0.8908  1.3836
H       0.4283  -2.2713  1.0314
H       1.5131  -1.2841  1.6626
H       3.3048  -1.0804  -1.6047
H       3.1591  0.0013  -0.2234
H       -0.9022  -2.3753  -1.1706
H       -1.2445  -1.0954  -2.0392
