27

Co      0.0106  0.0804  -0.0044
Cl      -1.0647  1.5826  -1.2039
Cl      1.1365  1.4073  1.3453
C       2.5636  -0.7231  -0.7908
C       2.0812  -1.8511  -0.1297
C       -2.4737  -1.2959  -0.4223
C       -2.4130  -1.1256  1.0338
N       1.5376  0.0196  -1.3467
N       1.0924  -1.5628  0.8578
N       -1.1283  -1.3877  -1.0449
N       -1.4965  -0.0829  1.4094
H       2.9879  -2.2512  0.3288
H       1.7025  -2.6164  -0.7893
H       -3.0146  -0.5080  -0.9186
H       -3.0146  -2.2220  -0.5742
H       1.8348  0.9657  -1.5360
H       1.2275  -0.3586  -2.2255
H       -1.9356  0.8218  1.4217
H       -1.1280  -0.2359  2.3317
H       -2.0573  -2.0505  1.4670
H       -3.4146  -0.9722  1.4118
H       0.5942  -2.4196  1.0577
H       1.4911  -1.2431  1.7260
H       3.3074  -1.0595  -1.5071
H       3.0731  -0.1121  -0.0686
H       -0.7970  -2.3288  -1.0016
H       -1.2133  -1.1449  -2.0158
