27

Co      -0.0474  0.0153  -0.0327
Cl      -1.0647  1.5858  -1.1972
Cl      1.2081  1.5224  1.4217
C       2.7630  -0.7160  -0.8481
C       2.2151  -2.0571  -0.0724
C       -2.5632  -1.3586  -0.4766
C       -2.4573  -1.1859  1.0834
N       1.4604  0.0913  -1.3355
N       1.0098  -1.5135  0.8071
N       -1.1481  -1.3329  -1.0185
N       -1.4570  -0.0365  1.3618
H       2.9071  -2.6325  0.5504
H       1.7838  -2.7176  -0.8141
H       -3.0378  -0.4703  -0.8744
H       -3.1115  -2.2244  -0.8292
H       1.6553  1.0770  -1.3967
H       1.1999  -0.1945  -2.2602
H       -1.9142  0.8599  1.3580
H       -1.0262  -0.1214  2.2716
H       -2.0953  -2.0690  1.5894
H       -3.4147  -0.9342  1.5127
H       0.4135  -2.2547  1.1324
H       1.4035  -1.0786  1.6248
H       3.3677  -0.9248  -1.7207
H       3.3121  -0.0440  -0.1993
H       -0.7247  -2.2466  -0.9647
H       -1.1694  -1.0681  -1.9867
