27

Co      0.0722  0.0711  0.0045
Cl      -1.0740  1.5919  -1.2093
Cl      1.1243  1.3966  1.3325
C       2.6237  -0.6896  -0.8154
C       2.1120  -1.9538  -0.0897
C       -2.5223  -1.3328  -0.4617
C       -2.4485  -1.1633  1.0697
N       1.4155  0.0489  -1.2734
N       1.0065  -1.4592  0.7923
N       -1.1237  -1.3665  -1.0203
N       -1.4663  -0.0740  1.3747
H       2.9807  -2.4468  0.3366
H       1.6213  -2.6445  -0.7580
H       -2.9283  -0.4650  -0.9733
H       -3.1823  -2.1906  -0.6117
H       1.7283  0.9865  -1.6055
H       1.2469  -0.4298  -2.1688
H       -1.9891  0.7918  1.3542
H       -1.2078  -0.1627  2.3465
H       -2.0692  -2.0386  1.5849
H       -3.4617  -1.0002  1.4227
H       0.4458  -2.2427  1.0840
H       1.5584  -1.2476  1.6369
H       3.3959  -1.0240  -1.5099
H       3.0587  0.0271  -0.1219
H       -0.9005  -2.3501  -1.0158
H       -1.2407  -1.1647  -2.0081
