27

Co      -0.0746  -0.0681  0.0009
Cl      -1.1086  1.6491  -1.2388
Cl      1.2015  1.5047  1.4003
C       2.8043  -0.7170  -0.8555
C       2.2196  -2.0381  -0.0749
C       -2.5867  -1.3601  -0.4703
C       -2.4513  -1.1729  1.0781
N       1.5042  0.1045  -1.3218
N       1.0702  -1.4733  0.8575
N       -1.1498  -1.1989  -0.9648
N       -1.4124  -0.0447  1.2632
H       2.8959  -2.6818  0.5008
H       1.7161  -2.6561  -0.8189
H       -3.1487  -0.5296  -0.8767
H       -3.0167  -2.2945  -0.8308
H       1.6652  1.1100  -1.2528
H       1.2984  -0.0848  -2.2912
H       -1.8491  0.8599  1.1805
H       -1.0063  -0.0498  2.1858
H       -2.0870  -2.0583  1.5851
H       -3.3763  -0.8752  1.5579
H       0.5675  -2.2224  1.3115
H       1.5205  -0.9334  1.5946
H       3.3822  -0.9607  -1.7428
H       3.3923  -0.0649  -0.2248
H       -0.6964  -2.1020  -0.9944
H       -1.1538  -0.8354  -1.8991
