27

Co      -0.0587  -0.0537  -0.0227
Cl      -1.1021  1.6610  -1.2408
Cl      1.2050  1.5257  1.4152
C       2.7635  -0.7204  -0.8315
C       2.2179  -2.0451  -0.0880
C       -2.5160  -1.3251  -0.4529
C       -2.4419  -1.1760  1.0904
N       1.4810  0.0905  -1.3415
N       1.0366  -1.5298  0.8300
N       -1.1069  -1.3287  -1.0129
N       -1.4705  -0.0233  1.3850
H       2.8184  -2.6298  0.6549
H       1.8543  -2.7140  -0.8685
H       -3.0470  -0.4341  -0.7662
H       -2.9770  -2.2012  -0.9451
H       1.5782  1.1063  -1.2421
H       1.0577  -0.0836  -2.2508
H       -1.8375  0.9061  1.2812
H       -0.9835  -0.0521  2.2751
H       -2.1227  -2.0909  1.5644
H       -3.3791  -0.8754  1.5364
H       0.4045  -2.2537  1.1274
H       1.2922  -0.9522  1.6479
H       3.2629  -0.8262  -1.8223
H       3.3982  -0.1328  -0.1799
H       -0.5807  -2.2015  -0.9761
H       -1.0691  -0.9538  -1.9439
