27

Co      0.0738  0.0316  0.0090
Cl      -1.0869  1.6178  -1.2256
Cl      1.1302  1.3995  1.3402
C       2.5414  -0.6878  -0.7450
C       2.0590  -1.8927  -0.0856
C       -2.5137  -1.3556  -0.4596
C       -2.4312  -1.1311  1.0555
N       1.3989  0.0408  -1.2600
N       1.0969  -1.4523  0.8032
N       -1.1467  -1.3488  -1.0658
N       -1.4269  -0.0707  1.3533
H       2.9695  -2.4462  0.2172
H       1.5206  -2.5153  -0.7908
H       -2.9686  -0.5217  -0.9773
H       -3.1532  -2.2391  -0.5643
H       1.7318  0.9724  -1.6018
H       1.2687  -0.4573  -2.1588
H       -1.9211  0.8145  1.3676
H       -1.1508  -0.1979  2.3158
H       -2.0973  -2.0023  1.6173
H       -3.4521  -0.9191  1.3736
H       0.5982  -2.2457  1.1590
H       1.6727  -1.1779  1.6032
H       3.2944  -1.1155  -1.4202
H       3.0209  0.0251  -0.0912
H       -0.9254  -2.3316  -1.1351
H       -1.2995  -1.0814  -2.0294
