27

Co      -0.0213  -0.0296  0.0152
Cl      -1.1071  1.6584  -1.2454
Cl      1.1815  1.4882  1.3870
C       2.6684  -0.7147  -0.8202
C       2.1476  -1.9433  -0.0996
C       -2.5731  -1.3560  -0.4523
C       -2.4308  -1.1429  1.0361
N       1.4938  0.0583  -1.3092
N       1.0669  -1.5166  0.8506
N       -1.1593  -1.2681  -0.9560
N       -1.3768  -0.1063  1.2379
H       2.9381  -2.4553  0.4302
H       1.7179  -2.6480  -0.7998
H       -3.1660  -0.5861  -0.9293
H       -2.9981  -2.3294  -0.6940
H       1.7069  1.0409  -1.3466
H       1.2339  -0.2058  -2.2371
H       -1.7853  0.8139  1.1822
H       -0.9990  -0.1606  2.1642
H       -2.1075  -2.0611  1.5123
H       -3.3548  -0.8357  1.5130
H       0.5715  -2.3209  1.1798
H       1.4936  -1.0885  1.6551
H       3.3169  -0.9982  -1.6350
H       3.2262  -0.0848  -0.1503
H       -0.7553  -2.1844  -0.9442
H       -1.1778  -0.9644  -1.9094
