27

Co      -0.0117  -0.0534  -0.0108
Cl      -1.1365  1.6873  -1.2490
Cl      1.2115  1.5266  1.4181
C       2.7808  -0.7315  -0.8598
C       2.2129  -2.0087  -0.1407
C       -2.5808  -1.2871  -0.4216
C       -2.4544  -1.2037  1.0766
N       1.5544  0.0506  -1.3220
N       1.0680  -1.5011  0.8718
N       -1.1750  -1.3604  -0.9961
N       -1.5521  -0.0536  1.3260
H       2.8591  -2.5225  0.6021
H       1.8453  -2.7432  -0.8521
H       -3.1258  -0.4138  -0.7503
H       -3.0415  -2.1793  -0.8600
H       1.6610  1.0673  -1.2262
H       1.0892  -0.1131  -2.2184
H       -1.9427  0.8496  1.0566
H       -1.1694  0.0478  2.2610
H       -2.0416  -2.1350  1.4404
H       -3.3729  -1.0091  1.6056
H       0.4737  -2.2497  1.1786
H       1.3654  -0.9378  1.6708
H       3.3717  -0.7801  -1.8003
H       3.3486  -0.1850  -0.1133
H       -0.7224  -2.2644  -0.9818
H       -1.1447  -0.9799  -1.9264
