27

Co      0.0086  0.0603  0.0229
Cl      -1.0402  1.5442  -1.1827
Cl      1.1099  1.3685  1.3058
C       2.5599  -0.7195  -0.8317
C       2.0843  -1.8351  -0.1016
C       -2.4425  -1.2838  -0.4477
C       -2.3536  -1.0841  1.0289
N       1.4683  0.0299  -1.2145
N       1.0112  -1.4410  0.7487
N       -1.1060  -1.3798  -1.0880
N       -1.4303  -0.0415  1.3860
H       3.0381  -2.1722  0.3474
H       1.6840  -2.6536  -0.6935
H       -2.9121  -0.4957  -1.0225
H       -3.0961  -2.1928  -0.4419
H       1.8233  0.9607  -1.4681
H       1.2964  -0.3647  -2.1347
H       -1.9385  0.8327  1.4081
H       -1.1692  -0.1800  2.3485
H       -1.9462  -1.9668  1.5043
H       -3.3793  -0.9880  1.3770
H       0.5462  -2.2939  1.0165
H       1.5382  -1.2265  1.6060
H       3.2951  -1.1591  -1.5184
H       3.0806  -0.0512  -0.1683
H       -0.9189  -2.3739  -1.1214
H       -1.2619  -1.1501  -2.0636
