27

Co      0.0106  0.0587  0.0025
Cl      -1.0517  1.5365  -1.1780
Cl      1.1184  1.3754  1.3119
C       2.6393  -0.7026  -0.8755
C       2.1329  -1.9241  -0.0466
C       -2.5071  -1.3071  -0.4646
C       -2.3952  -1.1337  1.0658
N       1.4866  0.1426  -1.3103
N       1.0359  -1.5259  0.8920
N       -1.1409  -1.3315  -1.0878
N       -1.4721  0.0017  1.3860
H       3.0518  -2.3888  0.3291
H       1.6269  -2.6430  -0.6773
H       -2.9487  -0.4573  -0.9704
H       -3.1648  -2.1775  -0.5765
H       1.8260  1.0879  -1.4477
H       1.3700  -0.1703  -2.2723
H       -2.0178  0.8563  1.3931
H       -1.1769  -0.0979  2.3401
H       -1.9405  -1.9872  1.5587
H       -3.4122  -1.0420  1.4460
H       0.5506  -2.3631  1.1748
H       1.5709  -1.2862  1.7343
H       3.3277  -1.1596  -1.6004
H       3.1926  -0.0023  -0.2635
H       -0.9069  -2.3119  -1.1381
H       -1.2750  -1.0677  -2.0547
