27

Co      0.0092  0.0350  0.0117
Cl      -1.0895  1.6264  -1.2273
Cl      1.1082  1.3540  1.3067
C       2.6023  -0.6672  -0.7775
C       2.0869  -1.9349  -0.1084
C       -2.4634  -1.2944  -0.4610
C       -2.3651  -1.1153  1.0495
N       1.4522  0.0833  -1.3370
N       1.1213  -1.5419  0.9633
N       -1.0981  -1.3694  -1.0846
N       -1.4365  -0.0114  1.4009
H       2.9104  -2.5312  0.2722
H       1.5527  -2.5449  -0.8344
H       -2.9562  -0.4433  -0.8999
H       -3.0448  -2.1726  -0.6848
H       1.6736  1.0493  -1.4965
H       1.1583  -0.2929  -2.2253
H       -1.8855  0.8928  1.3918
H       -1.0491  -0.1251  2.3192
H       -1.9793  -2.0174  1.5038
H       -3.3519  -0.9503  1.4580
H       0.6190  -2.3375  1.3027
H       1.5948  -1.1307  1.7461
H       3.3229  -0.9119  -1.5481
H       3.0857  -0.0337  -0.0556
H       -0.7595  -2.3072  -1.0776
H       -1.1561  -1.0614  -2.0329
