27

Co      0.0007  -0.0049  -0.0091
Cl      -1.0657  1.5721  -1.1866
Cl      1.1750  1.4680  1.3852
C       2.6535  -0.7082  -0.7878
C       2.1133  -1.9183  -0.1266
C       -2.5640  -1.3079  -0.4364
C       -2.4123  -1.1592  1.0369
N       1.4898  0.0416  -1.3175
N       1.0622  -1.4414  0.8166
N       -1.1730  -1.3099  -0.9933
N       -1.4520  -0.0665  1.2740
H       2.7837  -2.4458  0.5617
H       1.7567  -2.6305  -0.8687
H       -3.1789  -0.4951  -0.7911
H       -2.9645  -2.2482  -0.8184
H       1.6332  1.0372  -1.3389
H       1.0155  -0.2269  -2.1786
H       -1.8194  0.8608  1.1095
H       -1.0286  -0.0516  2.1799
H       -2.0589  -2.1007  1.4356
H       -3.3195  -0.8880  1.5653
H       0.4600  -2.1818  1.1169
H       1.3526  -0.8855  1.6203
H       3.2330  -0.8482  -1.7049
H       3.2513  -0.1540  -0.0792
H       -0.6889  -2.1941  -0.9563
H       -1.1498  -0.9489  -1.9291
