27

Co      0.0502  0.0380  0.0288
Cl      -1.1072  1.6587  -1.2486
Cl      1.1169  1.3917  1.3176
C       2.6173  -0.6867  -0.8252
C       2.1222  -1.9530  -0.0781
C       -2.5175  -1.3301  -0.4695
C       -2.4152  -1.1470  1.0543
N       1.4266  0.0761  -1.2850
N       1.0311  -1.5324  0.8594
N       -1.1079  -1.3539  -0.9931
N       -1.4075  -0.0748  1.3310
H       3.0231  -2.4508  0.2928
H       1.6144  -2.6369  -0.7453
H       -2.9351  -0.4780  -0.9985
H       -3.1557  -2.2058  -0.6094
H       1.7309  1.0216  -1.5365
H       1.2846  -0.3390  -2.2074
H       -1.9192  0.7989  1.3238
H       -1.1342  -0.1663  2.2971
H       -2.0326  -2.0269  1.5599
H       -3.4079  -0.9647  1.4428
H       0.5202  -2.3525  1.1422
H       1.5871  -1.3239  1.7072
H       3.3713  -1.0568  -1.5244
H       3.0814  0.0257  -0.1550
H       -0.8737  -2.3327  -0.9605
H       -1.1910  -1.1637  -1.9842
