27

Co      0.0738  0.0345  0.0062
Cl      -1.0869  1.6178  -1.2256
Cl      1.1302  1.3995  1.3402
C       2.5917  -0.6693  -0.7628
C       2.0776  -1.9414  -0.1182
C       -2.5223  -1.3465  -0.4518
C       -2.4324  -1.1311  1.0551
N       1.4026  0.0404  -1.2826
N       1.0734  -1.4498  0.8630
N       -1.1471  -1.3698  -1.0732
N       -1.4347  -0.0736  1.3652
H       2.8598  -2.5098  0.3562
H       1.5857  -2.5817  -0.8411
H       -3.0499  -0.5246  -0.9039
H       -3.0625  -2.2540  -0.6670
H       1.6196  1.0016  -1.5358
H       1.0559  -0.4037  -2.1332
H       -1.8518  0.8434  1.3111
H       -1.0902  -0.1640  2.3018
H       -2.1262  -2.0444  1.5513
H       -3.4100  -0.8721  1.4417
H       0.4893  -2.1958  1.1904
H       1.5374  -1.0591  1.6593
H       3.3151  -0.8564  -1.5481
H       3.0539  -0.0334  -0.0215
H       -0.8182  -2.3101  -1.1343
H       -1.2351  -1.0170  -2.0083
