27

Co      -0.0004  0.0087  -0.0174
Cl      -1.0855  1.5915  -1.2020
Cl      1.2043  1.5165  1.4108
C       2.7631  -0.7305  -0.9038
C       2.2135  -2.0070  -0.0978
C       -2.6109  -1.3377  -0.4418
C       -2.4733  -1.1862  1.0730
N       1.5269  0.0855  -1.3023
N       1.0070  -1.4917  0.8455
N       -1.2094  -1.3373  -1.0257
N       -1.5112  -0.0667  1.3165
H       2.9649  -2.4533  0.5593
H       1.8158  -2.7844  -0.7429
H       -3.1440  -0.5082  -0.8790
H       -3.1212  -2.2539  -0.7065
H       1.7415  1.0723  -1.3089
H       1.2177  -0.1316  -2.2313
H       -1.9681  0.8171  1.1780
H       -1.1745  -0.0557  2.2643
H       -2.0656  -2.0857  1.5064
H       -3.4189  -0.9925  1.5511
H       0.4348  -2.2678  1.1322
H       1.4116  -1.0950  1.6751
H       3.4047  -0.9232  -1.7569
H       3.3070  -0.1065  -0.2046
H       -0.8493  -2.2752  -1.0628
H       -1.2656  -1.0052  -1.9727
