27

Co      0.0114  0.0669  0.0356
Cl      -1.0803  1.5941  -1.2316
Cl      1.1050  1.3438  1.2878
C       2.6612  -0.7252  -0.8565
C       2.1413  -1.9041  -0.1339
C       -2.4675  -1.3281  -0.4228
C       -2.4250  -1.0746  1.0515
N       1.5394  0.0363  -1.2455
N       1.0915  -1.4597  0.8809
N       -1.1464  -1.3626  -1.1612
N       -1.4902  -0.0541  1.4707
H       2.9815  -2.3072  0.4138
H       1.7168  -2.6948  -0.7408
H       -3.0906  -0.6083  -0.9555
H       -2.9624  -2.3107  -0.4830
H       1.7955  0.9945  -1.3828
H       1.1624  -0.2800  -2.1280
H       -1.8987  0.8680  1.4732
H       -1.1493  -0.2230  2.4063
H       -2.1106  -1.9964  1.5231
H       -3.4387  -0.8877  1.3856
H       0.5773  -2.2721  1.1662
H       1.5440  -1.0882  1.6950
H       3.3605  -0.9488  -1.6544
H       3.1898  -0.1492  -0.1126
H       -0.8363  -2.3096  -1.3509
H       -1.3050  -0.8991  -2.0553
