27

Co      -0.0527  -0.0290  -0.0264
Cl      -1.0665  1.5883  -1.2025
Cl      1.2029  1.5095  1.4182
C       2.7807  -0.6988  -0.8248
C       2.1794  -2.0360  -0.0956
C       -2.5526  -1.3627  -0.4684
C       -2.4756  -1.1772  1.0905
N       1.4601  0.0594  -1.3342
N       1.0096  -1.4121  0.7814
N       -1.1206  -1.2294  -0.9770
N       -1.4382  -0.0589  1.3279
H       2.8204  -2.6839  0.5296
H       1.6991  -2.6457  -0.8586
H       -3.0849  -0.5135  -0.8725
H       -3.0133  -2.2733  -0.8392
H       1.6147  1.0539  -1.4057
H       1.2247  -0.2536  -2.2586
H       -1.8709  0.8497  1.2769
H       -1.0290  -0.1033  2.2472
H       -2.1535  -2.0670  1.6221
H       -3.4271  -0.8716  1.5078
H       0.4421  -2.1246  1.2173
H       1.4498  -0.8991  1.5332
H       3.4218  -0.8829  -1.6773
H       3.2856  -0.0275  -0.1437
H       -0.6752  -2.1344  -0.9926
H       -1.1464  -0.8934  -1.9200
