27

Co      -0.0092  -0.0305  -0.0182
Cl      -1.0836  1.6046  -1.1907
Cl      1.1965  1.5064  1.4144
C       2.6998  -0.7156  -0.8160
C       2.1297  -1.9291  -0.1261
C       -2.5558  -1.2619  -0.4429
C       -2.4156  -1.2104  1.0594
N       1.5073  0.0227  -1.3254
N       1.0135  -1.4309  0.7524
N       -1.1342  -1.3224  -0.9234
N       -1.5094  -0.0553  1.2668
H       2.8644  -2.4505  0.4804
H       1.7272  -2.6319  -0.8436
H       -2.9962  -0.3535  -0.8240
H       -3.1203  -2.1120  -0.8075
H       1.7081  1.0065  -1.4176
H       1.2488  -0.2926  -2.2380
H       -1.9933  0.8083  1.0472
H       -1.2015  0.0427  2.2253
H       -1.9430  -2.1079  1.4498
H       -3.3569  -1.0826  1.5724
H       0.4727  -2.2022  1.0915
H       1.4234  -0.9993  1.5586
H       3.3780  -0.9722  -1.6098
H       3.2123  -0.0732  -0.1167
H       -0.7829  -2.2644  -0.8044
H       -1.1202  -1.1259  -1.9163
