27

Co      0.0054  0.0622  0.0404
Cl      -1.0779  1.5951  -1.2257
Cl      1.1096  1.3623  1.2899
C       2.6894  -0.7373  -0.8695
C       2.1888  -1.9586  -0.0664
C       -2.4990  -1.3430  -0.4656
C       -2.4208  -1.1180  1.0642
N       1.4691  0.0722  -1.1998
N       1.0374  -1.4488  0.7672
N       -1.1288  -1.3360  -1.0831
N       -1.4429  -0.0332  1.4084
H       3.0527  -2.3944  0.4238
H       1.7342  -2.7129  -0.6931
H       -2.9675  -0.5302  -1.0060
H       -3.1242  -2.2454  -0.5466
H       1.7978  1.0148  -1.4043
H       1.2985  -0.2776  -2.1358
H       -1.9544  0.8423  1.4525
H       -1.1565  -0.1810  2.3683
H       -2.0467  -1.9839  1.6029
H       -3.4407  -0.9497  1.3982
H       0.5165  -2.2508  1.0780
H       1.5757  -1.2007  1.6052
H       3.3347  -1.1319  -1.6483
H       3.2634  -0.0521  -0.2574
H       -0.8851  -2.3110  -1.1677
H       -1.2729  -1.0406  -2.0375
