27

Co      0.0028  -0.0078  0.0130
Cl      -1.0801  1.6143  -1.2281
Cl      1.1022  1.3577  1.3014
C       2.6109  -0.6640  -0.8361
C       2.0822  -1.9112  -0.0671
C       -2.4209  -1.3037  -0.4606
C       -2.3857  -1.0942  1.0789
N       1.4525  0.1224  -1.3281
N       1.0390  -1.5101  0.9273
N       -1.0526  -1.2921  -1.0871
N       -1.4250  -0.0072  1.4246
H       2.9869  -2.4551  0.2443
H       1.5110  -2.5551  -0.7312
H       -2.8772  -0.4740  -0.9880
H       -3.0491  -2.1916  -0.5706
H       1.7378  1.0766  -1.4770
H       1.3677  -0.2262  -2.2915
H       -1.9251  0.8747  1.4430
H       -1.1257  -0.1307  2.3783
H       -2.0116  -1.9558  1.6247
H       -3.4238  -0.9417  1.3824
H       0.5953  -2.3432  1.2795
H       1.6160  -1.2257  1.7251
H       3.3625  -1.0864  -1.5204
H       3.0903  0.0441  -0.1810
H       -0.8192  -2.2705  -1.2051
H       -1.1991  -0.9589  -2.0270
