27

Co      0.0043  0.0380  -0.0031
Cl      -1.0780  1.5850  -1.2051
Cl      1.1468  1.4179  1.3507
C       2.6943  -0.7109  -0.8565
C       2.1362  -1.9355  -0.0810
C       -2.5128  -1.3148  -0.4519
C       -2.4517  -1.1674  1.0848
N       1.5299  0.0846  -1.3543
N       1.0476  -1.5006  0.8570
N       -1.1293  -1.3161  -1.0414
N       -1.5263  -0.0331  1.4080
H       3.0155  -2.4620  0.2990
H       1.6072  -2.6029  -0.7454
H       -2.9403  -0.4495  -0.9489
H       -3.1573  -2.1780  -0.6152
H       1.8456  1.0335  -1.5397
H       1.4428  -0.2856  -2.3062
H       -2.0688  0.8203  1.3858
H       -1.2458  -0.1132  2.3740
H       -2.0187  -2.0251  1.5903
H       -3.4801  -1.0675  1.4322
H       0.5690  -2.3275  1.1773
H       1.5987  -1.2375  1.6774
H       3.4472  -1.1446  -1.5352
H       3.1783  0.0032  -0.2015
H       -0.8854  -2.2971  -1.0876
H       -1.2549  -1.0600  -2.0099
