27

Co      0.0080  -0.0632  -0.0496
Cl      -1.1026  1.6252  -1.2150
Cl      1.2214  1.5530  1.4381
C       2.6702  -0.7400  -0.8559
C       2.1759  -1.9504  -0.0735
C       -2.5748  -1.3143  -0.4146
C       -2.4831  -1.1944  1.0923
N       1.5163  0.1044  -1.3038
N       1.0536  -1.5254  0.8334
N       -1.1813  -1.2814  -0.9966
N       -1.5381  -0.0647  1.3043
H       2.9895  -2.3772  0.5102
H       1.7989  -2.7232  -0.7341
H       -3.1015  -0.4670  -0.8189
H       -3.0775  -2.2184  -0.7372
H       1.7606  1.0915  -1.2224
H       1.2806  -0.0443  -2.2739
H       -1.9860  0.8162  1.1083
H       -1.2100  -0.0047  2.2570
H       -2.0942  -2.0821  1.5625
H       -3.4517  -0.9890  1.5187
H       0.5336  -2.3255  1.1394
H       1.4325  -1.0781  1.6529
H       3.2652  -1.0515  -1.6995
H       3.2859  -0.1175  -0.2217
H       -0.8157  -2.2179  -1.0549
H       -1.2592  -0.9392  -1.9416
