27

Co      -0.0572  -0.0233  -0.0401
Cl      -1.0982  1.6215  -1.2208
Cl      1.1981  1.5063  1.4016
C       2.7718  -0.7431  -0.8866
C       2.2300  -2.0106  -0.1077
C       -2.5532  -1.2930  -0.4092
C       -2.4814  -1.1958  1.0875
N       1.5862  0.0993  -1.3683
N       1.0617  -1.5729  0.9103
N       -1.1315  -1.2338  -0.9369
N       -1.5418  -0.0714  1.3343
H       2.9220  -2.4604  0.6309
H       1.9009  -2.7962  -0.7903
H       -3.1739  -0.4776  -0.7638
H       -2.9011  -2.2448  -0.8667
H       1.7264  1.1149  -1.1657
H       1.1711  0.0273  -2.3088
H       -1.9256  0.8422  1.1544
H       -1.0949  -0.0330  2.2396
H       -2.1132  -2.1319  1.4828
H       -3.4068  -0.9522  1.5878
H       0.5069  -2.3567  1.1973
H       1.3300  -0.9979  1.7218
H       3.3392  -0.8519  -1.8289
H       3.3803  -0.1985  -0.1748
H       -0.5945  -2.1041  -0.8966
H       -1.1038  -0.8724  -1.8736
