27

Co      -0.0047  -0.0258  -0.0144
Cl      -1.1096  1.6390  -1.2159
Cl      1.2250  1.5448  1.4343
C       2.7765  -0.7188  -0.8367
C       2.2232  -2.0628  -0.0862
C       -2.6595  -1.3492  -0.4781
C       -2.4497  -1.2248  1.0677
N       1.4506  0.0787  -1.2797
N       1.0540  -1.4646  0.8058
N       -1.2220  -1.3414  -0.9765
N       -1.4596  -0.0455  1.2310
H       2.8981  -2.6754  0.5274
H       1.7566  -2.7021  -0.8330
H       -3.1150  -0.4316  -0.8397
H       -3.2179  -2.2005  -0.8630
H       1.6317  1.0734  -1.3327
H       1.1766  -0.1956  -2.2001
H       -1.9379  0.8292  1.0697
H       -1.1018  0.0192  2.1747
H       -2.0075  -2.1064  1.5115
H       -3.3589  -1.0016  1.6135
H       0.4655  -2.1825  1.2018
H       1.4874  -0.9882  1.5803
H       3.3700  -0.8943  -1.7308
H       3.3312  -0.0597  -0.1771
H       -0.8329  -2.2709  -0.9057
H       -1.2074  -1.0881  -1.9517
