27

Co      0.0443  -0.0039  0.0487
Cl      -1.1204  1.6653  -1.2540
Cl      1.1271  1.3978  1.3189
C       2.6939  -0.7146  -0.8529
C       2.1493  -1.9373  -0.0885
C       -2.5162  -1.3166  -0.4602
C       -2.4217  -1.1487  1.0722
N       1.4738  0.0545  -1.2347
N       1.0300  -1.4191  0.7795
N       -1.1330  -1.3675  -1.0583
N       -1.4764  -0.0334  1.3740
H       2.9870  -2.4464  0.3662
H       1.6437  -2.6299  -0.7471
H       -2.9219  -0.4462  -0.9618
H       -3.1934  -2.1726  -0.5948
H       1.7620  1.0070  -1.4565
H       1.3193  -0.3290  -2.1636
H       -1.9969  0.8258  1.2766
H       -1.2588  -0.0625  2.3670
H       -2.0015  -2.0106  1.5796
H       -3.4343  -1.0221  1.4360
H       0.5061  -2.2126  1.1061
H       1.5884  -1.1711  1.6051
H       3.3871  -1.1021  -1.5933
H       3.2176  -0.0181  -0.2122
H       -0.9399  -2.3649  -1.1521
H       -1.2534  -1.0640  -2.0113
