27

Co      -0.0361  -0.0282  -0.0580
Cl      -1.0892  1.5987  -1.1987
Cl      1.2192  1.5184  1.4330
C       2.7880  -0.7168  -0.7853
C       2.2014  -2.0602  -0.1217
C       -2.6066  -1.3282  -0.4377
C       -2.5015  -1.2332  1.0976
N       1.4953  0.0548  -1.3445
N       1.1191  -1.4376  0.8385
N       -1.1670  -1.2155  -0.9394
N       -1.5350  -0.0563  1.2961
H       2.7742  -2.7415  0.5728
H       1.7542  -2.6551  -0.9246
H       -3.1871  -0.4438  -0.7132
H       -2.9825  -2.2287  -0.9976
H       1.5965  1.0705  -1.3039
H       1.0958  -0.1799  -2.2390
H       -1.9338  0.8542  1.1010
H       -1.0749  0.0140  2.1994
H       -2.1371  -2.1502  1.5373
H       -3.4146  -0.9443  1.6091
H       0.5226  -2.1126  1.3136
H       1.4576  -0.7343  1.5427
H       3.3676  -0.7517  -1.7393
H       3.3364  -0.1328  -0.0582
H       -0.6048  -2.0787  -0.8893
H       -1.1268  -0.8548  -1.8765
