27

Co      -0.0664  -0.0010  0.0014
Cl      -1.0742  1.5978  -1.2052
Cl      1.1645  1.4452  1.3634
C       2.6808  -0.7225  -0.7952
C       2.1470  -1.9334  -0.1245
C       -2.5337  -1.2975  -0.4425
C       -2.3873  -1.1458  1.0270
N       1.5284  0.0479  -1.3354
N       1.1031  -1.5078  0.8557
N       -1.1303  -1.2615  -0.9500
N       -1.4167  -0.0629  1.2700
H       2.8387  -2.4654  0.5286
H       1.7844  -2.6408  -0.8673
H       -3.1700  -0.5065  -0.8167
H       -2.8918  -2.2615  -0.8287
H       1.6745  1.0479  -1.2875
H       1.0968  -0.1667  -2.2261
H       -1.7860  0.8707  1.1809
H       -0.9411  -0.0972  2.1544
H       -2.0289  -2.0919  1.4182
H       -3.2872  -0.8724  1.5700
H       0.5716  -2.2831  1.1857
H       1.4019  -0.9205  1.6423
H       3.2532  -0.8875  -1.7120
H       3.2944  -0.1728  -0.0983
H       -0.5970  -2.1274  -0.8411
H       -1.0716  -0.9501  -1.9005
