27

Co      0.0311  0.0617  -0.0096
Cl      -1.0427  1.5390  -1.1845
Cl      1.1054  1.3520  1.3079
C       2.5211  -0.6954  -0.8042
C       2.0514  -1.8398  -0.1003
C       -2.4257  -1.2964  -0.4308
C       -2.3939  -1.0807  1.0553
N       1.4641  0.0573  -1.2622
N       1.0726  -1.4781  0.8565
N       -1.1034  -1.3402  -1.1283
N       -1.4734  -0.0413  1.4397
H       3.0451  -2.2342  0.2285
H       1.5691  -2.5941  -0.7018
H       -2.9291  -0.5224  -1.0022
H       -3.0538  -2.2174  -0.4262
H       1.8269  0.9857  -1.5127
H       1.3231  -0.3482  -2.1889
H       -1.9732  0.8403  1.4796
H       -1.1960  -0.2064  2.3962
H       -2.0249  -1.9596  1.5688
H       -3.4514  -0.9708  1.3356
H       0.6425  -2.3317  1.1785
H       1.6397  -1.2174  1.6671
H       3.3185  -1.1224  -1.4471
H       2.9875  -0.0243  -0.1039
H       -0.9099  -2.3319  -1.2496
H       -1.3141  -1.0377  -2.0779
