27

Co      -0.0106  -0.0660  0.0014
Cl      -1.1114  1.6668  -1.2496
Cl      1.1857  1.4964  1.3955
C       2.7548  -0.6910  -0.8302
C       2.1778  -2.0325  -0.0829
C       -2.5562  -1.3611  -0.4670
C       -2.4657  -1.1727  1.0897
N       1.4373  0.0817  -1.3077
N       1.0136  -1.4391  0.8155
N       -1.1195  -1.2544  -0.9759
N       -1.4164  -0.0617  1.3054
H       2.8374  -2.6698  0.5188
H       1.6909  -2.6481  -0.8395
H       -3.0709  -0.5028  -0.8704
H       -3.0345  -2.2642  -0.8359
H       1.5837  1.0798  -1.3508
H       1.1826  -0.2013  -2.2357
H       -1.8361  0.8485  1.1954
H       -1.0460  -0.0644  2.2419
H       -2.1501  -2.0641  1.6223
H       -3.4102  -0.8518  1.5154
H       0.4329  -2.1596  1.2129
H       1.4510  -0.9622  1.5894
H       3.3660  -0.8858  -1.7035
H       3.2918  -0.0273  -0.1701
H       -0.7060  -2.1696  -1.0229
H       -1.1391  -0.8866  -1.9091
