27

Co      -0.0478  0.0166  -0.0526
Cl      -1.0874  1.5962  -1.1935
Cl      1.2244  1.5337  1.4365
C       2.7051  -0.7555  -0.8072
C       2.1943  -1.9730  -0.1195
C       -2.6088  -1.3022  -0.4205
C       -2.4611  -1.2184  1.0539
N       1.5775  0.0590  -1.3748
N       1.1473  -1.5869  0.8803
N       -1.2047  -1.3009  -0.9441
N       -1.5439  -0.0743  1.2816
H       2.9256  -2.4714  0.5198
H       1.8510  -2.6993  -0.8510
H       -3.2013  -0.4564  -0.7507
H       -3.0125  -2.2218  -0.8689
H       1.7666  1.0568  -1.2887
H       1.1730  -0.1148  -2.2821
H       -1.9537  0.8298  1.1394
H       -1.0759  -0.0581  2.1758
H       -2.0490  -2.1514  1.4201
H       -3.3722  -1.0077  1.6031
H       0.6115  -2.3744  1.1829
H       1.4223  -0.9999  1.6789
H       3.2898  -0.9272  -1.7100
H       3.3163  -0.2005  -0.1066
H       -0.6763  -2.1762  -0.7996
H       -1.1610  -1.0439  -1.9161
