27

Co      -0.0032  -0.0359  -0.0161
Cl      -1.0724  1.5830  -1.1933
Cl      1.1817  1.4811  1.3986
C       2.6747  -0.7037  -0.8036
C       2.0957  -1.8944  -0.1259
C       -2.5240  -1.2910  -0.4234
C       -2.4299  -1.1630  1.0636
N       1.5372  0.0545  -1.3842
N       1.0467  -1.4486  0.8393
N       -1.1484  -1.3150  -1.0255
N       -1.5160  -0.0427  1.3495
H       2.7600  -2.4489  0.5421
H       1.7174  -2.5810  -0.8768
H       -3.1132  -0.4529  -0.7605
H       -2.9574  -2.2053  -0.8269
H       1.6690  1.0540  -1.3711
H       1.0956  -0.1992  -2.2604
H       -1.8862  0.8780  1.1560
H       -1.1063  -0.0167  2.2634
H       -2.0716  -2.0930  1.4781
H       -3.3718  -0.9319  1.5323
H       0.4487  -2.2038  1.1116
H       1.3233  -0.9043  1.6557
H       3.2682  -0.8939  -1.6909
H       3.2704  -0.1403  -0.1041
H       -0.6835  -2.2086  -1.0566
H       -1.1493  -0.8953  -1.9409
