27

Co      -0.0757  -0.0464  -0.0144
Cl      -1.1158  1.6816  -1.2442
Cl      1.2152  1.5349  1.4289
C       2.7154  -0.7386  -0.8026
C       2.1716  -1.9506  -0.1363
C       -2.5247  -1.2861  -0.4310
C       -2.4163  -1.1799  1.0503
N       1.5698  0.0287  -1.3842
N       1.0988  -1.5709  0.8495
N       -1.1239  -1.3380  -0.9521
N       -1.4880  -0.0637  1.3229
H       2.8660  -2.4831  0.5194
H       1.8254  -2.6488  -0.8941
H       -3.0808  -0.4317  -0.7812
H       -2.9636  -2.1917  -0.8640
H       1.7043  1.0353  -1.3078
H       1.1734  -0.1700  -2.2889
H       -1.8655  0.8578  1.1939
H       -1.0249  -0.0718  2.2203
H       -2.0414  -2.1174  1.4388
H       -3.3388  -0.9516  1.5564
H       0.5698  -2.3683  1.1330
H       1.3683  -1.0074  1.6651
H       3.3110  -0.9153  -1.6914
H       3.3071  -0.1737  -0.1008
H       -0.6197  -2.2210  -0.8219
H       -1.0598  -1.0573  -1.9133
