27

Co      -0.0633  -0.0010  -0.0127
Cl      -1.0539  1.5603  -1.1788
Cl      1.1848  1.4763  1.3931
C       2.6730  -0.7132  -0.7921
C       2.1252  -1.9210  -0.1276
C       -2.5556  -1.3069  -0.4456
C       -2.3889  -1.1474  1.0223
N       1.5237  0.0463  -1.3556
N       1.0829  -1.4876  0.8495
N       -1.1583  -1.2724  -0.9672
N       -1.4151  -0.0645  1.2529
H       2.8091  -2.4639  0.5286
H       1.7579  -2.6206  -0.8751
H       -3.1997  -0.5189  -0.8183
H       -2.9167  -2.2724  -0.8193
H       1.6667  1.0463  -1.3249
H       1.0952  -0.1885  -2.2401
H       -1.7845  0.8692  1.1606
H       -0.9379  -0.0941  2.1357
H       -2.0258  -2.0919  1.4104
H       -3.2825  -0.8724  1.5778
H       0.5436  -2.2567  1.1795
H       1.3801  -0.8987  1.6345
H       3.2641  -0.8781  -1.6933
H       3.2679  -0.1556  -0.0858
H       -0.6313  -2.1414  -0.8707
H       -1.1074  -0.9548  -1.9161
