27

Co      -0.0461  -0.0385  -0.0442
Cl      -1.0782  1.5821  -1.1869
Cl      1.2061  1.5048  1.4138
C       2.6640  -0.7169  -0.7778
C       2.1585  -1.9728  -0.0594
C       -2.5945  -1.3272  -0.4532
C       -2.4123  -1.1823  1.0596
N       1.4949  0.1468  -1.3717
N       1.1679  -1.5642  0.9299
N       -1.2044  -1.2632  -1.0220
N       -1.4606  -0.0014  1.2667
H       2.8502  -2.6145  0.4901
H       1.7188  -2.5788  -0.8578
H       -3.1912  -0.4595  -0.7368
H       -3.0128  -2.2289  -0.9297
H       1.6589  1.1529  -1.2263
H       1.1291  0.0041  -2.3022
H       -1.8564  0.9158  1.1540
H       -0.9533  0.0013  2.1428
H       -2.0221  -2.0851  1.5017
H       -3.3209  -0.9075  1.5945
H       0.6239  -2.3148  1.2982
H       1.4564  -0.9109  1.6897
H       3.1373  -0.9650  -1.7443
H       3.3729  -0.1383  -0.1820
H       -0.6588  -2.1285  -0.9802
H       -1.1746  -0.8905  -1.9552
