27

Co      0.0640  -0.0108  0.0070
Cl      -1.0864  1.6032  -1.2199
Cl      1.1371  1.4242  1.3390
C       2.6338  -0.7045  -0.8668
C       2.1309  -1.9277  -0.0539
C       -2.5189  -1.3348  -0.4454
C       -2.4516  -1.1395  1.0875
N       1.4394  0.1080  -1.2392
N       0.9921  -1.4410  0.8010
N       -1.1396  -1.3096  -1.0663
N       -1.4703  -0.0474  1.3644
H       3.0077  -2.3647  0.4133
H       1.6624  -2.6764  -0.6794
H       -2.9789  -0.5024  -0.9569
H       -3.1387  -2.2266  -0.5748
H       1.7493  1.0604  -1.3868
H       1.2978  -0.2065  -2.1935
H       -1.9709  0.8213  1.2719
H       -1.2387  -0.0811  2.3489
H       -2.0830  -1.9998  1.6357
H       -3.4710  -0.9550  1.4171
H       0.4571  -2.2385  1.0982
H       1.5202  -1.1926  1.6433
H       3.3012  -1.1144  -1.6204
H       3.1879  -0.0092  -0.2508
H       -0.9259  -2.2970  -1.2244
H       -1.3036  -0.9589  -2.0054
