27

Co      -0.0190  -0.0308  -0.0299
Cl      -1.0839  1.6127  -1.2134
Cl      1.1865  1.4874  1.3988
C       2.6562  -0.7122  -0.8081
C       2.1396  -1.9500  -0.1039
C       -2.5263  -1.3185  -0.4347
C       -2.4431  -1.1554  1.0700
N       1.4781  0.0592  -1.2976
N       1.0689  -1.4824  0.8313
N       -1.1298  -1.2648  -0.9928
N       -1.4616  -0.0700  1.3143
H       2.9260  -2.4546  0.4393
H       1.7105  -2.6555  -0.7992
H       -3.0773  -0.5023  -0.8710
H       -3.0013  -2.2465  -0.7196
H       1.6963  1.0409  -1.3324
H       1.2295  -0.2022  -2.2316
H       -1.8926  0.8332  1.2177
H       -1.0931  -0.0935  2.2461
H       -2.0931  -2.0579  1.5504
H       -3.4077  -0.9148  1.4886
H       0.5710  -2.2634  1.2126
H       1.5003  -1.0031  1.6048
H       3.3193  -0.9604  -1.6198
H       3.1886  -0.0836  -0.1163
H       -0.7418  -2.1891  -1.0098
H       -1.1909  -0.9474  -1.9420
