27

Co      0.0071  0.0352  0.0013
Cl      -1.0811  1.5925  -1.2100
Cl      1.1464  1.4128  1.3479
C       2.6655  -0.7053  -0.8110
C       2.1256  -1.9367  -0.1047
C       -2.5328  -1.3256  -0.4467
C       -2.4326  -1.1493  1.0597
N       1.5088  0.0693  -1.3369
N       1.1001  -1.4968  0.8878
N       -1.1579  -1.3243  -1.0540
N       -1.4854  -0.0448  1.3700
H       2.9192  -2.4920  0.3708
H       1.6431  -2.5963  -0.8124
H       -3.0703  -0.5005  -0.8841
H       -3.0556  -2.2357  -0.6885
H       1.7461  1.0372  -1.4616
H       1.2210  -0.2683  -2.2362
H       -1.9351  0.8534  1.3229
H       -1.1164  -0.1246  2.2985
H       -2.0568  -2.0499  1.5250
H       -3.4100  -0.9565  1.4763
H       0.5737  -2.2840  1.2127
H       1.5438  -1.0817  1.6846
H       3.3461  -0.9835  -1.6021
H       3.1958  -0.0747  -0.1184
H       -0.7948  -2.2562  -1.0876
H       -1.2274  -0.9880  -1.9951
