27

Co      0.0000  -0.0005  0.0032
Cl      -1.0971  1.6187  -1.2238
Cl      1.1671  1.4518  1.3674
C       2.6993  -0.7264  -0.8181
C       2.1645  -1.9616  -0.0772
C       -2.5623  -1.3419  -0.4521
C       -2.4517  -1.1729  1.0714
N       1.5037  0.0854  -1.3166
N       1.0957  -1.4890  0.8340
N       -1.1706  -1.2997  -1.0254
N       -1.4827  -0.0406  1.3398
H       2.9205  -2.5332  0.4438
H       1.7039  -2.6150  -0.8075
H       -3.0830  -0.4900  -0.8568
H       -3.0814  -2.2374  -0.7594
H       1.7372  1.0605  -1.3829
H       1.2394  -0.2002  -2.2380
H       -1.9339  0.8532  1.2643
H       -1.1129  -0.0848  2.2715
H       -2.0804  -2.0603  1.5661
H       -3.4187  -0.9443  1.4953
H       0.5461  -2.2591  1.1629
H       1.5114  -1.0540  1.6386
H       3.2899  -1.0478  -1.6647
H       3.3100  -0.0856  -0.1975
H       -0.7827  -2.2241  -1.0575
H       -1.2215  -0.9587  -1.9671
