27

Co      0.0071  -0.0025  -0.0131
Cl      -1.0872  1.6087  -1.2122
Cl      1.1560  1.4391  1.3601
C       2.6482  -0.7097  -0.8121
C       2.1372  -1.9457  -0.0977
C       -2.5338  -1.3035  -0.4384
C       -2.4302  -1.1647  1.0638
N       1.4759  0.0712  -1.2931
N       1.0730  -1.4886  0.8456
N       -1.1311  -1.2785  -0.9796
N       -1.4686  -0.0614  1.3072
H       2.9313  -2.4469  0.4329
H       1.7050  -2.6543  -0.7904
H       -3.0608  -0.4681  -0.8631
H       -3.0302  -2.2142  -0.7340
H       1.7061  1.0474  -1.3555
H       1.2010  -0.2069  -2.2143
H       -1.9176  0.8309  1.1896
H       -1.1191  -0.0658  2.2451
H       -2.0468  -2.0678  1.5178
H       -3.3895  -0.9555  1.5110
H       0.5518  -2.2699  1.1926
H       1.5029  -1.0473  1.6385
H       3.3007  -0.9673  -1.6309
H       3.1950  -0.0848  -0.1282
H       -0.7545  -2.2055  -0.9617
H       -1.1742  -0.9886  -1.9388
