27

Co      -0.0278  -0.0262  -0.0188
Cl      -1.0964  1.6251  -1.2151
Cl      1.1993  1.5015  1.4080
C       2.6991  -0.7306  -0.8260
C       2.1644  -1.9511  -0.1088
C       -2.5480  -1.3036  -0.4395
C       -2.4306  -1.1743  1.0664
N       1.5222  0.0545  -1.3079
N       1.0832  -1.4913  0.8254
N       -1.1619  -1.3261  -1.0172
N       -1.5046  -0.0429  1.3265
H       2.9427  -2.4639  0.4411
H       1.7349  -2.6534  -0.8065
H       -3.0517  -0.4466  -0.8530
H       -3.0894  -2.1919  -0.7286
H       1.7462  1.0365  -1.3384
H       1.2705  -0.2005  -2.2415
H       -1.9642  0.8413  1.2027
H       -1.1511  -0.0420  2.2668
H       -2.0131  -2.0669  1.5087
H       -3.3950  -1.0075  1.5152
H       0.5822  -2.2814  1.1826
H       1.5055  -1.0302  1.6125
H       3.3459  -1.0035  -1.6420
H       3.2550  -0.1026  -0.1488
H       -0.8009  -2.2639  -1.0114
H       -1.2100  -1.0294  -1.9738
