27

Co      -0.0207  -0.0323  -0.0299
Cl      -1.0884  1.6115  -1.2101
Cl      1.1930  1.4979  1.4008
C       2.7104  -0.7182  -0.8377
C       2.1851  -2.0006  -0.0795
C       -2.5585  -1.3214  -0.4480
C       -2.4486  -1.1819  1.0825
N       1.4723  0.0945  -1.2938
N       1.0530  -1.4881  0.8297
N       -1.1461  -1.2714  -0.9895
N       -1.4756  -0.0437  1.3068
H       2.9294  -2.5306  0.5042
H       1.7515  -2.6958  -0.7858
H       -3.0689  -0.4588  -0.8454
H       -3.0641  -2.2144  -0.7924
H       1.6800  1.0835  -1.2853
H       1.2239  -0.1266  -2.2406
H       -1.9294  0.8449  1.1841
H       -1.1054  -0.0308  2.2411
H       -2.0606  -2.0693  1.5598
H       -3.4026  -0.9553  1.5317
H       0.5166  -2.2475  1.2059
H       1.4707  -1.0084  1.6117
H       3.3142  -0.9572  -1.7013
H       3.2839  -0.0787  -0.1840
H       -0.7476  -2.1937  -0.9880
H       -1.1847  -0.9624  -1.9437
