27

Co      0.0246  0.0117  0.0160
Cl      -1.0893  1.6133  -1.2198
Cl      1.1223  1.3858  1.3241
C       2.6517  -0.6878  -0.8065
C       2.0971  -1.9162  -0.1079
C       -2.5029  -1.2946  -0.4459
C       -2.4144  -1.1528  1.0613
N       1.4907  0.0651  -1.3403
N       1.0605  -1.4693  0.8687
N       -1.1084  -1.3070  -1.0038
N       -1.4726  -0.0456  1.3532
H       2.8724  -2.4793  0.3815
H       1.6184  -2.5715  -0.8252
H       -3.0074  -0.4464  -0.8709
H       -3.0319  -2.1878  -0.7282
H       1.7051  1.0362  -1.4770
H       1.1995  -0.2889  -2.2347
H       -1.9228  0.8474  1.2445
H       -1.1376  -0.0712  2.2951
H       -2.0281  -2.0571  1.5134
H       -3.3875  -0.9683  1.4894
H       0.5177  -2.2512  1.1794
H       1.5009  -1.0755  1.6779
H       3.3389  -0.9667  -1.5911
H       3.1700  -0.0534  -0.1110
H       -0.7560  -2.2413  -1.0073
H       -1.1476  -0.9913  -1.9525
