27

Co      0.0041  0.0311  0.0037
Cl      -1.0730  1.5828  -1.2053
Cl      1.1435  1.4187  1.3421
C       2.6609  -0.7148  -0.8446
C       2.1460  -1.9403  -0.0774
C       -2.5316  -1.3282  -0.4530
C       -2.4289  -1.1456  1.0610
N       1.4870  0.0877  -1.2938
N       1.0493  -1.4948  0.8409
N       -1.1440  -1.3006  -1.0269
N       -1.4547  -0.0511  1.3424
H       2.9885  -2.4208  0.4016
H       1.6891  -2.6594  -0.7410
H       -3.0391  -0.5089  -0.9365
H       -3.0823  -2.2404  -0.6411
H       1.7691  1.0477  -1.4129
H       1.2839  -0.2226  -2.2284
H       -1.9373  0.8323  1.3130
H       -1.1263  -0.1291  2.2863
H       -2.0438  -2.0300  1.5519
H       -3.4128  -0.9566  1.4655
H       0.5378  -2.3003  1.1513
H       1.5288  -1.1601  1.6634
H       3.3291  -1.0672  -1.6198
H       3.2113  -0.0515  -0.1966
H       -0.8274  -2.2498  -1.0540
H       -1.2333  -1.0142  -1.9862
