27

Co      -0.0281  -0.0167  -0.0152
Cl      -1.0733  1.5921  -1.1975
Cl      1.1766  1.4724  1.3845
C       2.6792  -0.7197  -0.8283
C       2.1447  -1.9350  -0.1025
C       -2.5204  -1.2904  -0.4429
C       -2.4128  -1.1632  1.0616
N       1.4994  0.0583  -1.3040
N       1.0372  -1.4684  0.7970
N       -1.1243  -1.2985  -0.9880
N       -1.4743  -0.0445  1.3183
H       2.9139  -2.4245  0.4806
H       1.7422  -2.6599  -0.7961
H       -3.0264  -0.4408  -0.8626
H       -3.0436  -2.1860  -0.7395
H       1.7192  1.0386  -1.3465
H       1.2378  -0.2063  -2.2332
H       -1.9299  0.8427  1.2022
H       -1.1195  -0.0464  2.2547
H       -2.0054  -2.0607  1.5049
H       -3.3734  -0.9831  1.5133
H       0.5173  -2.2546  1.1322
H       1.4452  -1.0278  1.6021
H       3.3180  -0.9970  -1.6491
H       3.2388  -0.0897  -0.1579
H       -0.7519  -2.2290  -0.9538
H       -1.1579  -1.0233  -1.9522
