27

Co      -0.0175  -0.0113  -0.0304
Cl      -1.0818  1.6103  -1.2095
Cl      1.1879  1.4926  1.3981
C       2.6849  -0.7088  -0.8229
C       2.1765  -2.0086  -0.0819
C       -2.5517  -1.3299  -0.4563
C       -2.4377  -1.1727  1.0726
N       1.4431  0.0876  -1.2920
N       1.0477  -1.5089  0.8347
N       -1.1384  -1.2962  -0.9904
N       -1.4443  -0.0533  1.3078
H       2.9308  -2.5358  0.4893
H       1.7469  -2.7005  -0.7940
H       -3.0573  -0.4711  -0.8675
H       -3.0649  -2.2231  -0.7838
H       1.6528  1.0720  -1.3284
H       1.1805  -0.1709  -2.2235
H       -1.8917  0.8434  1.2319
H       -1.0546  -0.0804  2.2323
H       -2.0693  -2.0668  1.5532
H       -3.3884  -0.9273  1.5209
H       0.5017  -2.2683  1.1942
H       1.4655  -1.0495  1.6268
H       3.3090  -0.9241  -1.6779
H       3.2324  -0.0639  -0.1537
H       -0.7373  -2.2159  -0.9510
H       -1.1700  -1.0226  -1.9559
