27

Co      -0.0041  -0.0311  -0.0037
Cl      -1.1038  1.6412  -1.2258
Cl      1.1709  1.4600  1.3789
C       2.6730  -0.7041  -0.8088
C       2.1258  -1.9342  -0.1144
C       -2.5234  -1.2915  -0.4427
C       -2.4138  -1.1647  1.0644
N       1.5007  0.0557  -1.3224
N       1.0787  -1.4794  0.8542
N       -1.1331  -1.3256  -1.0122
N       -1.4872  -0.0396  1.3302
H       2.9007  -2.4885  0.3922
H       1.6581  -2.5980  -0.8285
H       -3.0142  -0.4269  -0.8547
H       -3.0729  -2.1722  -0.7354
H       1.7080  1.0366  -1.3948
H       1.2401  -0.2440  -2.2409
H       -1.9421  0.8474  1.1895
H       -1.1499  -0.0292  2.2756
H       -2.0008  -2.0611  1.5053
H       -3.3803  -0.9981  1.5097
H       0.5713  -2.2648  1.2118
H       1.5198  -1.0332  1.6377
H       3.3502  -0.9692  -1.6037
H       3.1969  -0.0720  -0.1133
H       -0.7869  -2.2666  -1.0116
H       -1.1732  -1.0186  -1.9646
