27

Co      -0.0249  0.0014  -0.0165
Cl      -1.0926  1.6101  -1.2085
Cl      1.1690  1.4467  1.3694
C       2.7067  -0.7117  -0.8200
C       2.1657  -1.9797  -0.1237
C       -2.5620  -1.2898  -0.4378
C       -2.4219  -1.1785  1.0561
N       1.5147  0.0652  -1.3184
N       1.1067  -1.5010  0.8982
N       -1.1499  -1.2749  -0.9657
N       -1.4842  -0.0543  1.2853
H       2.8971  -2.5206  0.4626
H       1.7296  -2.6727  -0.8326
H       -3.1266  -0.4538  -0.8192
H       -3.0033  -2.2111  -0.8017
H       1.6890  1.0600  -1.3094
H       1.1594  -0.1681  -2.2276
H       -1.9152  0.8442  1.1316
H       -1.0878  -0.0245  2.2066
H       -2.0040  -2.0996  1.4457
H       -3.3464  -0.9814  1.5817
H       0.5886  -2.2678  1.2832
H       1.5026  -0.9581  1.6554
H       3.3551  -0.8530  -1.6854
H       3.2395  -0.1277  -0.0847
H       -0.7046  -2.1781  -0.9008
H       -1.1391  -0.9754  -1.9216
