27

Co      -0.0329  -0.0176  -0.0012
Cl      -1.0934  1.6178  -1.2166
Cl      1.1715  1.4554  1.3703
C       2.6787  -0.7199  -0.8309
C       2.1548  -1.9396  -0.0946
C       -2.5428  -1.3080  -0.4479
C       -2.4020  -1.1479  1.0519
N       1.5181  0.0863  -1.3089
N       1.1025  -1.5147  0.8829
N       -1.1596  -1.3000  -1.0271
N       -1.4567  -0.0331  1.3064
H       2.9565  -2.4607  0.4066
H       1.6986  -2.6346  -0.7855
H       -3.0837  -0.4832  -0.8797
H       -3.0524  -2.2246  -0.7024
H       1.7473  1.0677  -1.3109
H       1.2657  -0.1449  -2.2503
H       -1.9091  0.8599  1.2191
H       -1.0859  -0.0602  2.2362
H       -1.9886  -2.0434  1.4945
H       -3.3558  -0.9637  1.5198
H       0.6252  -2.3195  1.2418
H       1.5378  -1.0543  1.6645
H       3.3096  -1.0183  -1.6546
H       3.2599  -0.0991  -0.1702
H       -0.7873  -2.2305  -1.0351
H       -1.2046  -0.9802  -1.9751
