27

Co      -0.0246  -0.0128  -0.0175
Cl      -1.0788  1.6038  -1.2031
Cl      1.1821  1.4803  1.3901
C       2.6567  -0.7159  -0.8250
C       2.1477  -1.9439  -0.0961
C       -2.5257  -1.2998  -0.4488
C       -2.3979  -1.1514  1.0553
N       1.4840  0.0745  -1.2979
N       1.0593  -1.5099  0.8384
N       -1.1452  -1.3428  -1.0329
N       -1.4610  -0.0331  1.3260
H       2.9444  -2.4303  0.4486
H       1.7327  -2.6644  -0.7860
H       -3.0273  -0.4490  -0.8743
H       -3.0781  -2.1887  -0.7123
H       1.7124  1.0532  -1.3344
H       1.2161  -0.1819  -2.2276
H       -1.9147  0.8578  1.2394
H       -1.0911  -0.0629  2.2558
H       -1.9890  -2.0465  1.4990
H       -3.3595  -0.9753  1.5071
H       0.5475  -2.3052  1.1633
H       1.4706  -1.0755  1.6455
H       3.2936  -0.9886  -1.6491
H       3.2201  -0.0873  -0.1558
H       -0.7877  -2.2788  -1.0082
H       -1.1916  -1.0618  -1.9947
