27

Co      0.0248  0.0094  0.0287
Cl      -1.0911  1.6119  -1.2284
Cl      1.1271  1.3927  1.3220
C       2.6815  -0.7092  -0.8411
C       2.1307  -1.9240  -0.0896
C       -2.5133  -1.3303  -0.4488
C       -2.4389  -1.1369  1.0708
N       1.4947  0.0683  -1.2846
N       1.0456  -1.4319  0.8200
N       -1.1333  -1.3013  -1.0518
N       -1.4703  -0.0465  1.3759
H       2.9368  -2.4461  0.3978
H       1.6451  -2.6131  -0.7654
H       -3.0216  -0.5123  -0.9309
H       -3.0693  -2.2416  -0.6295
H       1.7548  1.0293  -1.4405
H       1.2750  -0.2777  -2.2044
H       -1.9400  0.8407  1.3095
H       -1.1777  -0.1102  2.3356
H       -2.0744  -2.0202  1.5819
H       -3.4377  -0.9424  1.4386
H       0.5157  -2.2193  1.1444
H       1.5410  -1.0979  1.6333
H       3.3524  -1.0596  -1.6146
H       3.2269  -0.0484  -0.1883
H       -0.8409  -2.2589  -1.1625
H       -1.2417  -0.9369  -1.9836
