27

Co      -0.0058  -0.0282  -0.0039
Cl      -1.1125  1.6496  -1.2323
Cl      1.1843  1.4830  1.3893
C       2.6959  -0.7326  -0.8202
C       2.1623  -1.9430  -0.1134
C       -2.5498  -1.2973  -0.4301
C       -2.4344  -1.1794  1.0642
N       1.5336  0.0557  -1.3179
N       1.0919  -1.5010  0.8382
N       -1.1622  -1.3376  -1.0070
N       -1.5161  -0.0480  1.3308
H       2.8972  -2.4568  0.4952
H       1.7694  -2.6527  -0.8302
H       -3.0810  -0.4394  -0.8029
H       -3.0482  -2.1910  -0.7851
H       1.7219  1.0458  -1.3140
H       1.1743  -0.1773  -2.2251
H       -1.9361  0.8501  1.1595
H       -1.1444  -0.0241  2.2638
H       -2.0374  -2.0919  1.4835
H       -3.3831  -0.9855  1.5353
H       0.5403  -2.2797  1.1389
H       1.4388  -1.0114  1.6496
H       3.2915  -0.9606  -1.6931
H       3.2967  -0.1451  -0.1435
H       -0.7532  -2.2550  -0.9964
H       -1.1750  -0.9992  -1.9501
