27

Co      0.0012  0.0057  -0.0042
Cl      -1.0851  1.6162  -1.2183
Cl      1.1554  1.4405  1.3645
C       2.6156  -0.7098  -0.8187
C       2.1030  -1.8899  -0.1063
C       -2.4879  -1.2987  -0.4367
C       -2.4142  -1.1362  1.0574
N       1.5078  0.0524  -1.3207
N       1.0616  -1.5150  0.8491
N       -1.1189  -1.3379  -1.0340
N       -1.4778  -0.0583  1.3679
H       2.9904  -2.3508  0.3238
H       1.6505  -2.6106  -0.7665
H       -2.9765  -0.4761  -0.9332
H       -3.0707  -2.2000  -0.5971
H       1.7919  1.0099  -1.4590
H       1.3237  -0.2831  -2.2522
H       -1.9541  0.8253  1.3197
H       -1.1657  -0.1332  2.3186
H       -2.0241  -2.0272  1.5291
H       -3.4171  -0.9891  1.4337
H       0.5955  -2.3532  1.1497
H       1.5444  -1.1871  1.6721
H       3.3520  -1.0801  -1.5294
H       3.1168  -0.0513  -0.1316
H       -0.8385  -2.3018  -1.0536
H       -1.2197  -1.0695  -1.9979
