27

Co      -0.0170  0.0068  0.0087
Cl      -1.1021  1.6325  -1.2190
Cl      1.1675  1.4486  1.3742
C       2.6927  -0.7023  -0.8057
C       2.1216  -1.9317  -0.1230
C       -2.5616  -1.2953  -0.4551
C       -2.4071  -1.1825  1.0425
N       1.5392  0.0497  -1.3833
N       1.0990  -1.5189  0.8932
N       -1.1525  -1.3232  -0.9628
N       -1.4726  -0.0550  1.2861
H       2.9037  -2.5290  0.3322
H       1.6253  -2.5595  -0.8567
H       -3.0538  -0.4316  -0.8717
H       -3.0951  -2.1814  -0.7557
H       1.7530  1.0271  -1.4913
H       1.2908  -0.2900  -2.2910
H       -1.9460  0.8268  1.1782
H       -1.1162  -0.0585  2.2223
H       -1.9595  -2.0869  1.4448
H       -3.3481  -1.0305  1.5518
H       0.6082  -2.3240  1.2324
H       1.5502  -1.0980  1.6833
H       3.4094  -0.9901  -1.5643
H       3.1889  -0.0598  -0.0971
H       -0.7836  -2.2566  -0.8679
H       -1.1436  -1.0930  -1.9408
