27

Co      0.0067  0.0207  0.0245
Cl      -1.0621  1.5676  -1.1926
Cl      1.1288  1.3924  1.3175
C       2.6410  -0.7067  -0.8608
C       2.1456  -1.9331  -0.0631
C       -2.5069  -1.3124  -0.4780
C       -2.3530  -1.1048  1.0484
N       1.4258  0.1011  -1.1934
N       1.0236  -1.4340  0.8025
N       -1.1530  -1.3782  -1.1297
N       -1.4128  0.0115  1.3525
H       3.0192  -2.3873  0.3924
H       1.6624  -2.6713  -0.6907
H       -2.9442  -0.4684  -0.9927
H       -3.1926  -2.1830  -0.5429
H       1.7365  1.0520  -1.3588
H       1.2665  -0.2238  -2.1398
H       -1.9384  0.8758  1.3342
H       -1.1398  -0.0695  2.3164
H       -1.9065  -1.9590  1.5441
H       -3.3538  -0.9907  1.4458
H       0.5262  -2.2334  1.1502
H       1.5760  -1.1530  1.6150
H       3.2902  -1.0940  -1.6379
H       3.2074  -0.0202  -0.2441
H       -0.9525  -2.3703  -1.2146
H       -1.2938  -1.0823  -2.0854
