27

Co      -0.0258  -0.0316  0.0145
Cl      -1.1212  1.6520  -1.2372
Cl      1.1891  1.4817  1.3915
C       2.7560  -0.7421  -0.8051
C       2.1588  -1.9282  -0.1440
C       -2.6039  -1.3111  -0.4219
C       -2.4666  -1.2033  1.0490
N       1.6047  0.0178  -1.3729
N       1.1253  -1.4607  0.8355
N       -1.1832  -1.2437  -0.9108
N       -1.5117  -0.0944  1.2534
H       2.8099  -2.5170  0.5174
H       1.7632  -2.5972  -0.9045
H       -3.2344  -0.4997  -0.7664
H       -2.9475  -2.2680  -0.8652
H       1.7402  1.0223  -1.3386
H       1.1840  -0.2157  -2.2580
H       -1.8909  0.8221  1.0371
H       -1.1080  -0.0300  2.1744
H       -2.0908  -2.1464  1.4338
H       -3.3660  -0.9427  1.5980
H       0.5745  -2.2238  1.1714
H       1.4345  -0.8748  1.6156
H       3.3460  -0.9312  -1.6997
H       3.3620  -0.1896  -0.1019
H       -0.6666  -2.1211  -0.8653
H       -1.1241  -0.8794  -1.8450
