27

Co      0.0067  0.0359  0.0211
Cl      -1.0842  1.6077  -1.2155
Cl      1.1530  1.4242  1.3479
C       2.6748  -0.7172  -0.8335
C       2.1617  -1.9635  -0.0933
C       -2.5379  -1.3370  -0.4759
C       -2.3969  -1.1322  1.0506
N       1.4437  0.0474  -1.2099
N       1.0606  -1.4383  0.7864
N       -1.1710  -1.3945  -1.1002
N       -1.4374  -0.0274  1.3555
H       3.0188  -2.4648  0.3475
H       1.6575  -2.6587  -0.7483
H       -2.9697  -0.4881  -0.9944
H       -3.2168  -2.2067  -0.5583
H       1.7498  0.9955  -1.4530
H       1.2886  -0.3496  -2.1335
H       -1.9620  0.8399  1.3565
H       -1.1580  -0.1271  2.3207
H       -1.9720  -1.9948  1.5504
H       -3.3964  -0.9993  1.4405
H       0.5658  -2.2274  1.1654
H       1.6355  -1.1444  1.5792
H       3.3844  -1.0579  -1.5769
H       3.1740  -0.0210  -0.1694
H       -0.9585  -2.3850  -1.1472
H       -1.3011  -1.1380  -2.0681
