27

Co      0.0043  0.0380  -0.0031
Cl      -1.0780  1.5850  -1.2051
Cl      1.1468  1.4179  1.3507
C       2.6897  -0.7155  -0.8339
C       2.1317  -1.9264  -0.0992
C       -2.5128  -1.3058  -0.4383
C       -2.4472  -1.1674  1.0758
N       1.5480  0.0756  -1.3769
N       1.0703  -1.5097  0.8706
N       -1.1384  -1.3342  -1.0459
N       -1.5399  -0.0331  1.4171
H       2.9202  -2.4620  0.4033
H       1.6753  -2.6029  -0.8044
H       -3.0129  -0.4495  -0.8582
H       -3.0666  -2.1871  -0.7150
H       1.7911  1.0426  -1.4853
H       1.2704  -0.2493  -2.2835
H       -2.0053  0.8521  1.3495
H       -1.1823  -0.0996  2.3513
H       -2.0505  -2.0613  1.5358
H       -3.4439  -1.0176  1.4685
H       0.5236  -2.3093  1.1364
H       1.4807  -1.1331  1.7046
H       3.3610  -1.0357  -1.6168
H       3.2372  -0.0785  -0.1607
H       -0.7811  -2.2699  -1.0694
H       -1.2049  -1.0101  -1.9918
