27

Co      0.0233  0.0247  -0.0071
Cl      -1.0758  1.5840  -1.1918
Cl      1.1390  1.4013  1.3354
C       2.5634  -0.7268  -0.7600
C       2.1146  -1.8965  -0.0838
C       -2.5133  -1.2779  -0.4475
C       -2.3642  -1.1488  1.0439
N       1.4424  0.0699  -1.2277
N       1.1433  -1.4830  0.8044
N       -1.1631  -1.3794  -1.0742
N       -1.4824  0.0020  1.3388
H       2.9545  -2.3874  0.3859
H       1.6964  -2.5962  -0.7924
H       -2.9807  -0.3928  -0.8371
H       -3.1317  -2.1266  -0.7045
H       1.7281  1.0273  -1.3526
H       1.1421  -0.2454  -2.1290
H       -1.9590  0.8802  1.2446
H       -1.1318  -0.0294  2.2720
H       -1.9230  -2.0335  1.4830
H       -3.3441  -1.0215  1.4853
H       0.6193  -2.2652  1.1383
H       1.5591  -1.0447  1.6046
H       3.1442  -1.0681  -1.6027
H       3.2002  -0.1126  -0.1395
H       -0.8371  -2.3238  -1.0369
H       -1.2316  -1.1152  -2.0418
