27

Co      -0.0082  -0.0538  -0.0074
Cl      -1.1275  1.6898  -1.2555
Cl      1.1985  1.5057  1.4141
C       2.6969  -0.7116  -0.7965
C       2.1363  -1.9500  -0.1311
C       -2.5332  -1.3171  -0.4354
C       -2.4547  -1.1742  1.0740
N       1.5142  0.0225  -1.3338
N       1.0905  -1.4806  0.8379
N       -1.1366  -1.3224  -0.9982
N       -1.4973  -0.0727  1.3385
H       2.8973  -2.5279  0.3781
H       1.6617  -2.5923  -0.8603
H       -3.0365  -0.4638  -0.8587
H       -3.0602  -2.2109  -0.7353
H       1.7078  1.0066  -1.4217
H       1.2696  -0.2972  -2.2500
H       -1.9325  0.8247  1.2036
H       -1.1581  -0.0745  2.2871
H       -2.0882  -2.0759  1.5429
H       -3.4260  -0.9646  1.4866
H       0.5911  -2.2627  1.2161
H       1.5391  -1.0182  1.6097
H       3.4045  -0.9557  -1.5725
H       3.1861  -0.0730  -0.0791
H       -0.7816  -2.2623  -1.0200
H       -1.1835  -0.9998  -1.9445
