27

Co      -0.0545  -0.0617  -0.0287
Cl      -1.0794  1.6177  -1.2153
Cl      1.2158  1.5334  1.4329
C       2.6818  -0.7179  -0.8056
C       2.1444  -1.9484  -0.1177
C       -2.5271  -1.3377  -0.4395
C       -2.4411  -1.1390  1.0629
N       1.4805  0.0282  -1.2835
N       1.0516  -1.4402  0.7807
N       -1.1333  -1.2534  -0.9980
N       -1.4261  -0.0822  1.2963
H       2.8980  -2.4628  0.4702
H       1.7263  -2.6533  -0.8197
H       -3.1097  -0.5512  -0.8960
H       -2.9725  -2.2928  -0.6991
H       1.6759  1.0167  -1.3097
H       1.2464  -0.2320  -2.2218
H       -1.8345  0.8353  1.2223
H       -1.0433  -0.1237  2.2232
H       -2.1227  -2.0446  1.5629
H       -3.3968  -0.8564  1.4763
H       0.5719  -2.2135  1.2041
H       1.4870  -0.9232  1.5337
H       3.3455  -0.9526  -1.6198
H       3.2061  -0.0872  -0.1086
H       -0.7336  -2.1744  -1.0410
H       -1.1972  -0.9116  -1.9379
