27

Co      0.0000  0.0087  0.0000
Cl      -1.1194  1.6460  -1.2354
Cl      1.1874  1.4712  1.3879
C       2.8047  -0.7156  -0.8282
C       2.2140  -2.0597  -0.0958
C       -2.6230  -1.3590  -0.4689
C       -2.4856  -1.2180  1.0877
N       1.5014  0.0759  -1.3331
N       1.1098  -1.4701  0.8666
N       -1.1985  -1.3121  -1.0091
N       -1.5128  -0.0387  1.3301
H       2.8887  -2.7472  0.4378
H       1.6733  -2.6301  -0.8616
H       -3.1025  -0.4567  -0.8374
H       -3.1627  -2.2206  -0.8462
H       1.6882  1.0626  -1.4358
H       1.2331  -0.2514  -2.2407
H       -1.9895  0.8421  1.2218
H       -1.1440  -0.0393  2.2695
H       -2.0763  -2.0991  1.5647
H       -3.4340  -1.0019  1.5565
H       0.5334  -2.1914  1.2780
H       1.5756  -0.9922  1.6214
H       3.4405  -0.9099  -1.6852
H       3.3306  -0.0557  -0.1495
H       -0.7986  -2.2369  -1.0117
H       -1.2172  -0.9881  -1.9570
