27

Co      0.0018  0.0252  0.0014
Cl      -1.0672  1.5631  -1.1832
Cl      1.1304  1.3904  1.3291
C       2.5981  -0.7305  -0.8129
C       2.0840  -1.8233  -0.1271
C       -2.4882  -1.2372  -0.4137
C       -2.3825  -1.1464  1.0383
N       1.5628  0.0357  -1.3081
N       1.0905  -1.4733  0.8256
N       -1.1277  -1.3123  -0.9995
N       -1.5276  -0.0444  1.3343
H       2.9560  -2.2280  0.3763
H       1.7000  -2.6039  -0.7725
H       -3.0168  -0.4204  -0.8595
H       -3.0190  -2.1493  -0.6284
H       1.8430  0.9964  -1.3933
H       1.2764  -0.2538  -2.2207
H       -1.9996  0.8299  1.1833
H       -1.2222  -0.0374  2.2842
H       -1.9231  -2.0570  1.4159
H       -3.3631  -1.0679  1.4941
H       0.6226  -2.3153  1.1098
H       1.5045  -1.0798  1.6477
H       3.2857  -1.0927  -1.5665
H       3.1650  -0.1380  -0.1198
H       -0.8065  -2.2595  -0.9671
H       -1.1880  -1.0481  -1.9660
