27

Co      0.0053  0.0209  0.0053
Cl      -1.0445  1.5450  -1.1863
Cl      1.1071  1.3625  1.3114
C       2.5520  -0.6909  -0.8175
C       2.0339  -1.8087  -0.1045
C       -2.4320  -1.2844  -0.4299
C       -2.3919  -1.0895  1.0478
N       1.5013  0.0505  -1.3062
N       1.0325  -1.4481  0.8345
N       -1.0737  -1.2498  -1.0284
N       -1.4396  -0.0664  1.3634
H       2.9969  -2.2251  0.2486
H       1.5546  -2.5571  -0.7172
H       -2.9636  -0.5315  -1.0057
H       -2.9830  -2.2380  -0.4690
H       1.8354  0.9900  -1.5053
H       1.4026  -0.3281  -2.2528
H       -1.9323  0.8158  1.3546
H       -1.1760  -0.1738  2.3257
H       -2.0182  -1.9764  1.5479
H       -3.4206  -0.9510  1.3760
H       0.6285  -2.3136  1.1682
H       1.5959  -1.1765  1.6429
H       3.3535  -1.1626  -1.4430
H       3.0210  -0.0132  -0.1285
H       -0.8458  -2.2290  -1.1151
H       -1.2330  -0.9645  -1.9845
