27

Co      0.0560  0.0524  0.0565
Cl      -1.0723  1.5899  -1.2205
Cl      1.0729  1.3104  1.2614
C       2.6294  -0.6751  -0.8318
C       2.0898  -1.9123  -0.0808
C       -2.4716  -1.3281  -0.4753
C       -2.3887  -1.1002  1.0556
N       1.4215  0.0730  -1.2492
N       1.0081  -1.4049  0.8185
N       -1.0992  -1.3458  -1.0904
N       -1.4065  -0.0280  1.3986
H       2.9391  -2.4422  0.3261
H       1.5542  -2.5819  -0.7448
H       -2.9222  -0.5033  -1.0109
H       -3.1161  -2.2167  -0.5507
H       1.7136  1.0134  -1.5546
H       1.2361  -0.3865  -2.1485
H       -1.9087  0.8529  1.4057
H       -1.1510  -0.1522  2.3672
H       -2.0191  -1.9723  1.5882
H       -3.4067  -0.9309  1.3951
H       0.4667  -2.1910  1.1302
H       1.5825  -1.1851  1.6478
H       3.3541  -1.0538  -1.5530
H       3.1208  0.0262  -0.1739
H       -0.8913  -2.3305  -1.1978
H       -1.2353  -1.0237  -2.0347
