27

Co      -0.0022  -0.0287  -0.0198
Cl      -1.1037  1.6220  -1.1988
Cl      1.2136  1.5222  1.4225
C       2.6803  -0.7335  -0.8078
C       2.1611  -1.9408  -0.1224
C       -2.6054  -1.2716  -0.4351
C       -2.3903  -1.1989  1.0408
N       1.5276  0.0641  -1.3120
N       1.1165  -1.5109  0.8578
N       -1.2302  -1.4113  -1.0328
N       -1.5295  -0.0176  1.2702
H       2.8631  -2.4561  0.5359
H       1.8003  -2.6589  -0.8552
H       -3.1277  -0.3729  -0.7355
H       -3.1287  -2.1325  -0.8467
H       1.6880  1.0657  -1.2550
H       1.0691  -0.1295  -2.1980
H       -1.9473  0.8731  1.0194
H       -1.1322  0.0803  2.1930
H       -1.9118  -2.1188  1.3715
H       -3.2958  -1.0560  1.6263
H       0.5387  -2.2734  1.1490
H       1.3982  -0.9484  1.6636
H       3.2281  -0.8915  -1.7424
H       3.3179  -0.1862  -0.1198
H       -0.7982  -2.3217  -0.9521
H       -1.1946  -1.0958  -1.9863
