27

Co      -0.0086  -0.0598  -0.0234
Cl      -1.1365  1.6797  -1.2484
Cl      1.2045  1.5102  1.4152
C       2.7014  -0.7236  -0.8193
C       2.1566  -1.9526  -0.1069
C       -2.5871  -1.3137  -0.4222
C       -2.4789  -1.2028  1.0790
N       1.5583  0.0758  -1.3635
N       1.1382  -1.5403  0.9168
N       -1.1719  -1.2411  -0.9460
N       -1.5240  -0.0799  1.2725
H       2.9635  -2.5161  0.3495
H       1.6656  -2.6078  -0.8150
H       -3.1299  -0.4742  -0.8301
H       -3.0508  -2.2328  -0.7611
H       1.7790  1.0653  -1.3315
H       1.3576  -0.1407  -2.3220
H       -1.9784  0.8038  1.0891
H       -1.1861  -0.0220  2.2228
H       -2.0720  -2.1004  1.5246
H       -3.4310  -1.0022  1.5450
H       0.6860  -2.3490  1.3116
H       1.5901  -1.0468  1.6727
H       3.3840  -1.0216  -1.6013
H       3.2370  -0.0948  -0.1306
H       -0.7840  -2.1705  -0.9593
H       -1.2076  -0.9221  -1.8959
