27

Co      -0.0088  -0.0296  -0.0001
Cl      -1.0985  1.6374  -1.2368
Cl      1.1729  1.4725  1.3808
C       2.7586  -0.7017  -0.8625
C       2.1696  -1.9953  -0.1268
C       -2.5394  -1.3324  -0.4366
C       -2.4811  -1.1639  1.0818
N       1.4983  0.0372  -1.3048
N       0.9910  -1.4226  0.8169
N       -1.1088  -1.2409  -0.9520
N       -1.4610  -0.1026  1.3207
H       2.8749  -2.5122  0.5235
H       1.7336  -2.7148  -0.8066
H       -3.1045  -0.5360  -0.8966
H       -2.9680  -2.2858  -0.7318
H       1.6607  1.0298  -1.3645
H       1.2080  -0.2469  -2.2217
H       -1.8784  0.8054  1.1830
H       -1.1294  -0.0977  2.2706
H       -2.1569  -2.0807  1.5589
H       -3.4329  -0.8909  1.5084
H       0.4404  -2.1762  1.1874
H       1.4378  -0.9793  1.6003
H       3.4628  -0.8457  -1.6812
H       3.2230  -0.0712  -0.1135
H       -0.7175  -2.1640  -1.0041
H       -1.1497  -0.8829  -1.8873
