27

Co      0.0028  -0.0073  0.0126
Cl      -1.0801  1.6143  -1.2281
Cl      1.1022  1.3577  1.3014
C       2.5359  -0.6904  -0.8224
C       2.0490  -1.8199  -0.0928
C       -2.3955  -1.2769  -0.4280
C       -2.3732  -1.0708  1.0568
N       1.5005  0.0802  -1.3013
N       1.0718  -1.5217  0.9045
N       -1.0579  -1.2960  -1.0842
N       -1.4442  -0.0378  1.4150
H       3.0516  -2.2340  0.1995
H       1.5474  -2.5590  -0.6997
H       -2.9021  -0.5080  -1.0042
H       -2.9954  -2.2093  -0.4471
H       1.8358  1.0229  -1.4416
H       1.4115  -0.2468  -2.2676
H       -1.9309  0.8474  1.4197
H       -1.1731  -0.1677  2.3764
H       -2.0011  -1.9500  1.5692
H       -3.4229  -0.9523  1.3473
H       0.6958  -2.4119  1.2241
H       1.6367  -1.2536  1.7163
H       3.3193  -1.1763  -1.4574
H       3.0291  -0.0193  -0.1496
H       -0.8556  -2.2849  -1.2112
H       -1.2370  -0.9733  -2.0266
