27

Co      0.0174  -0.0127  0.0058
Cl      -1.0776  1.6118  -1.2256
Cl      1.0997  1.3528  1.2965
C       2.5966  -0.6758  -0.7939
C       2.0922  -1.9240  -0.0950
C       -2.4187  -1.2898  -0.4422
C       -2.3860  -1.0967  1.0745
N       1.4146  0.0816  -1.2557
N       1.0567  -1.4460  0.8604
N       -1.0519  -1.2953  -1.0765
N       -1.4334  -0.0171  1.4160
H       2.8794  -2.4453  0.4121
H       1.6278  -2.6087  -0.7902
H       -2.9453  -0.4669  -0.8852
H       -2.9483  -2.1961  -0.6803
H       1.6224  1.0540  -1.3591
H       1.1077  -0.2337  -2.1616
H       -1.8514  0.8966  1.3500
H       -1.0788  -0.0928  2.3478
H       -2.0628  -1.9970  1.5822
H       -3.3896  -0.8745  1.4190
H       0.5232  -2.2105  1.2216
H       1.5053  -1.0043  1.6425
H       3.2471  -0.9093  -1.6216
H       3.1347  -0.0571  -0.1037
H       -0.7073  -2.2283  -1.1714
H       -1.1489  -0.8992  -1.9963
