27

Co      0.0492  0.0169  0.0350
Cl      -1.0765  1.5942  -1.2206
Cl      1.0771  1.3255  1.2740
C       2.5454  -0.6950  -0.8057
C       2.0297  -1.7925  -0.1137
C       -2.4357  -1.2718  -0.4112
C       -2.3995  -1.0997  1.0434
N       1.5241  0.0528  -1.3262
N       1.0500  -1.4676  0.8602
N       -1.0743  -1.2727  -1.0080
N       -1.4626  -0.0766  1.3720
H       2.9058  -2.2110  0.3568
H       1.6237  -2.5559  -0.7645
H       -3.0222  -0.5171  -0.9056
H       -2.9006  -2.2362  -0.5821
H       1.7868  1.0085  -1.4565
H       1.2102  -0.2818  -2.2200
H       -1.8762  0.8335  1.2680
H       -1.1627  -0.1378  2.3198
H       -2.0668  -2.0264  1.4973
H       -3.3968  -0.9070  1.4162
H       0.5446  -2.3102  1.0807
H       1.4625  -1.1391  1.7171
H       3.2446  -1.0768  -1.5453
H       3.1045  -0.0982  -0.1178
H       -0.7502  -2.2113  -1.0850
H       -1.1629  -0.9041  -1.9371
