27

Co      -0.0690  -0.0567  -0.0215
Cl      -1.0818  1.6201  -1.2178
Cl      1.2182  1.5383  1.4378
C       2.6915  -0.7106  -0.8251
C       2.1297  -1.9265  -0.1079
C       -2.5294  -1.3426  -0.4443
C       -2.4363  -1.1366  1.0582
N       1.5366  0.0599  -1.3786
N       1.0566  -1.5134  0.8612
N       -1.1430  -1.2684  -1.0132
N       -1.4314  -0.0722  1.3139
H       2.9103  -2.4726  0.4067
H       1.6775  -2.5997  -0.8196
H       -3.1142  -0.5583  -0.9080
H       -2.9825  -2.2974  -0.6892
H       1.7369  1.0484  -1.3732
H       1.3341  -0.1882  -2.3290
H       -1.8446  0.8452  1.2789
H       -1.0266  -0.1481  2.2311
H       -2.1033  -2.0397  1.5510
H       -3.3946  -0.8737  1.4761
H       0.5987  -2.3281  1.2211
H       1.4798  -1.0403  1.6435
H       3.3747  -1.0208  -1.6003
H       3.2206  -0.0677  -0.1451
H       -0.7412  -2.1895  -1.0565
H       -1.1975  -0.9214  -1.9505
