27

Co      -0.0715  -0.0700  -0.0166
Cl      -1.0710  1.5982  -1.1958
Cl      1.2019  1.5108  1.4162
C       2.6748  -0.6992  -0.8177
C       2.1152  -1.9147  -0.1100
C       -2.5302  -1.3009  -0.4524
C       -2.3841  -1.1390  1.0428
N       1.5034  0.0622  -1.3365
N       1.0440  -1.4654  0.8389
N       -1.1270  -1.2427  -0.9696
N       -1.3998  -0.0529  1.2408
H       2.8813  -2.4596  0.4244
H       1.6659  -2.5968  -0.8193
H       -3.0933  -0.4951  -0.8931
H       -2.9886  -2.2419  -0.7262
H       1.6908  1.0559  -1.3166
H       1.2963  -0.1720  -2.2901
H       -1.8332  0.8503  1.1361
H       -1.0191  -0.0489  2.1660
H       -1.9865  -2.0412  1.4865
H       -3.3148  -0.9135  1.5368
H       0.5972  -2.2654  1.2499
H       1.4829  -0.9592  1.5954
H       3.3426  -0.9879  -1.6129
H       3.2095  -0.0639  -0.1356
H       -0.7302  -2.1648  -0.9481
H       -1.1427  -0.9449  -1.9251
