27

Co      -0.0556  -0.0524  -0.0376
Cl      -1.1045  1.6382  -1.2147
Cl      1.2415  1.5637  1.4555
C       2.7324  -0.7505  -0.8311
C       2.1940  -1.9671  -0.1172
C       -2.5685  -1.2996  -0.4345
C       -2.4411  -1.1935  1.0723
N       1.5460  0.0396  -1.3020
N       1.0967  -1.4931  0.7998
N       -1.1830  -1.3346  -1.0137
N       -1.5349  -0.0405  1.3145
H       2.9646  -2.4731  0.4592
H       1.7791  -2.6780  -0.8135
H       -3.0585  -0.4253  -0.8331
H       -3.1238  -2.1753  -0.7440
H       1.7674  1.0287  -1.2865
H       1.3221  -0.1768  -2.2541
H       -2.0046  0.8348  1.1633
H       -1.1799  -0.0084  2.2583
H       -1.9959  -2.0792  1.5025
H       -3.4025  -1.0502  1.5336
H       0.6212  -2.2849  1.1939
H       1.5161  -0.9898  1.5677
H       3.3737  -1.0161  -1.6518
H       3.2911  -0.1230  -0.1529
H       -0.8208  -2.2763  -0.9946
H       -1.2292  -1.0548  -1.9768
