27

Co      0.0082  0.0667  0.0010
Cl      -1.0539  1.5606  -1.1820
Cl      1.1202  1.3798  1.3237
C       2.6219  -0.6851  -0.7970
C       2.0998  -1.9306  -0.1061
C       -2.4999  -1.2809  -0.4629
C       -2.3733  -1.1515  1.0405
N       1.4565  0.0641  -1.3314
N       1.0470  -1.5033  0.8584
N       -1.1069  -1.3582  -1.0043
N       -1.4458  -0.0330  1.3459
H       2.8942  -2.4593  0.3912
H       1.6544  -2.6095  -0.8205
H       -2.9688  -0.4108  -0.8875
H       -3.0743  -2.1488  -0.7347
H       1.6906  1.0270  -1.5148
H       1.1459  -0.3217  -2.2104
H       -1.9184  0.8542  1.3022
H       -1.0731  -0.0997  2.2686
H       -1.9509  -2.0577  1.4580
H       -3.3356  -1.0015  1.5076
H       0.4923  -2.2883  1.1419
H       1.4735  -1.1341  1.6866
H       3.3186  -0.9367  -1.5827
H       3.1231  -0.0450  -0.0905
H       -0.7496  -2.2898  -0.8870
H       -1.1206  -1.1540  -1.9909
