27

Co      0.0664  0.0041  -0.0015
Cl      -1.0936  1.6322  -1.2288
Cl      1.1438  1.4335  1.3606
C       2.5615  -0.7053  -0.7626
C       2.0649  -1.8667  -0.0890
C       -2.4736  -1.3086  -0.4330
C       -2.4337  -1.1524  1.0731
N       1.4680  0.0552  -1.3389
N       1.0691  -1.5036  0.8045
N       -1.1241  -1.4070  -1.0780
N       -1.5184  -0.0399  1.4343
H       2.8891  -2.3864  0.3720
H       1.6437  -2.5322  -0.8264
H       -2.9266  -0.4235  -0.8419
H       -3.0973  -2.1529  -0.7006
H       1.7307  1.0088  -1.5342
H       1.1730  -0.3408  -2.2180
H       -1.9558  0.8565  1.3534
H       -1.1860  -0.1179  2.3767
H       -2.0963  -2.0449  1.5809
H       -3.4542  -0.9655  1.3979
H       0.4820  -2.2985  1.0079
H       1.4451  -1.1727  1.6797
H       3.2049  -1.0908  -1.5368
H       3.1443  -0.0603  -0.1313
H       -0.8157  -2.3574  -1.1229
H       -1.2176  -1.0793  -2.0230
