27

Co      0.0633  -0.0014  0.0097
Cl      -1.1055  1.6501  -1.2358
Cl      1.1097  1.3773  1.3143
C       2.6120  -0.6731  -0.8289
C       2.0949  -1.9293  -0.0794
C       -2.4465  -1.2666  -0.4548
C       -2.3952  -1.1509  1.0900
N       1.4289  0.0939  -1.2932
N       1.0176  -1.4921  0.8628
N       -1.0672  -1.3920  -1.0648
N       -1.5034  -0.0023  1.4286
H       2.9828  -2.4459  0.2856
H       1.5631  -2.5938  -0.7482
H       -2.7802  -0.3361  -0.9262
H       -3.1937  -2.0635  -0.6353
H       1.7184  1.0437  -1.5174
H       1.2982  -0.3046  -2.2265
H       -2.0429  0.8456  1.3229
H       -1.2750  -0.0226  2.4156
H       -1.9479  -2.0060  1.5843
H       -3.4365  -1.0851  1.4217
H       0.5002  -2.3003  1.1634
H       1.5731  -1.2622  1.6975
H       3.3648  -1.0504  -1.5228
H       3.0747  0.0384  -0.1585
H       -0.8940  -2.3959  -1.1037
H       -1.1894  -1.1435  -2.0366
