27

Co      -0.0463  0.0074  -0.0248
Cl      -1.0623  1.5798  -1.1982
Cl      1.1987  1.4989  1.4097
C       2.6845  -0.7274  -0.8027
C       2.1589  -1.9637  -0.1171
C       -2.5525  -1.3528  -0.4464
C       -2.4504  -1.1474  1.0515
N       1.4828  0.0214  -1.2799
N       1.0678  -1.4532  0.7776
N       -1.1555  -1.2649  -0.9910
N       -1.4278  -0.0937  1.2993
H       2.9211  -2.4670  0.4701
H       1.7503  -2.6771  -0.8165
H       -3.1435  -0.5750  -0.9119
H       -2.9914  -2.3142  -0.6924
H       1.7063  0.9980  -1.3725
H       1.2178  -0.2849  -2.1945
H       -1.8493  0.8224  1.2831
H       -1.0256  -0.1825  2.2156
H       -2.1303  -2.0591  1.5412
H       -3.4008  -0.8652  1.4811
H       0.5636  -2.2229  1.1745
H       1.5022  -0.9671  1.5456
H       3.3532  -0.9517  -1.6185
H       3.2055  -0.0972  -0.0996
H       -0.7390  -2.1783  -0.9818
H       -1.2118  -0.9713  -1.9470
