27

Co      -0.0188  -0.0179  0.0069
Cl      -1.1233  1.6814  -1.2513
Cl      1.1942  1.4975  1.4056
C       2.6809  -0.7134  -0.7775
C       2.1347  -1.9430  -0.1402
C       -2.5755  -1.3298  -0.4397
C       -2.4278  -1.1678  1.0334
N       1.5409  0.0322  -1.3848
N       1.1337  -1.5557  0.9093
N       -1.1801  -1.3504  -0.9856
N       -1.4522  -0.0866  1.2898
H       2.8380  -2.5346  0.4386
H       1.7203  -2.5882  -0.9111
H       -3.1793  -0.5131  -0.8106
H       -2.9866  -2.2675  -0.8167
H       1.6785  1.0305  -1.3984
H       1.1047  -0.2448  -2.2527
H       -1.8124  0.8492  1.1775
H       -1.0002  -0.1201  2.1887
H       -2.0879  -2.1150  1.4340
H       -3.3352  -0.8881  1.5556
H       0.5838  -2.3372  1.1977
H       1.4432  -1.0122  1.7114
H       3.3124  -0.8694  -1.6486
H       3.2406  -0.1489  -0.0498
H       -0.6902  -2.2356  -0.9171
H       -1.1344  -1.0133  -1.9271
