27

Co      -0.0640  0.0126  -0.0035
Cl      -1.1077  1.6342  -1.2276
Cl      1.1972  1.4795  1.3957
C       2.8196  -0.7251  -0.8098
C       2.2213  -2.0532  -0.1150
C       -2.6145  -1.3489  -0.4645
C       -2.4576  -1.2062  1.0640
N       1.5535  0.0716  -1.3939
N       1.1531  -1.5254  0.9132
N       -1.1928  -1.2927  -0.9875
N       -1.4894  -0.0366  1.3180
H       2.8188  -2.7653  0.5091
H       1.7425  -2.6202  -0.9270
H       -3.1958  -0.4804  -0.7739
H       -3.0241  -2.2539  -0.9469
H       1.6672  1.0809  -1.3674
H       1.1405  -0.1766  -2.2795
H       -1.8910  0.8822  1.2366
H       -0.9899  -0.0681  2.2027
H       -2.0749  -2.1266  1.4850
H       -3.3607  -0.9364  1.6053
H       0.5716  -2.2480  1.2998
H       1.4852  -0.9010  1.6628
H       3.3854  -0.8310  -1.7552
H       3.4061  -0.1389  -0.1153
H       -0.6367  -2.1570  -0.9080
H       -1.1249  -0.9441  -1.9259
