27

Co      0.0004  -0.0058  0.0161
Cl      -1.0573  1.5821  -1.1998
Cl      1.1270  1.4029  1.3290
C       2.6120  -0.6869  -0.8751
C       2.0929  -1.8775  -0.1165
C       -2.4258  -1.2687  -0.4466
C       -2.3500  -1.0757  1.0489
N       1.4516  0.0454  -1.2181
N       0.9488  -1.4164  0.7979
N       -1.0751  -1.3712  -1.0978
N       -1.4228  -0.0328  1.3858
H       3.0006  -2.2315  0.3821
H       1.6571  -2.6962  -0.6881
H       -2.8869  -0.4748  -1.0240
H       -3.0772  -2.1772  -0.4515
H       1.7351  0.9996  -1.3938
H       1.2846  -0.2946  -2.1591
H       -1.9179  0.8427  1.3271
H       -1.1898  -0.1010  2.3647
H       -1.9358  -1.9581  1.5145
H       -3.3695  -0.9820  1.4040
H       0.4909  -2.2527  1.1183
H       1.5057  -1.1682  1.6230
H       3.3943  -1.0098  -1.5659
H       3.0553  -0.0181  -0.1484
H       -0.9106  -2.3758  -1.1980
H       -1.2328  -1.0759  -2.0516
