27

Co      -0.0556  -0.0599  -0.0385
Cl      -1.1111  1.6474  -1.2371
Cl      1.2040  1.5092  1.4093
C       2.7444  -0.7183  -0.8566
C       2.2001  -2.0072  -0.1180
C       -2.5532  -1.3159  -0.4129
C       -2.4698  -1.1636  1.0820
N       1.5552  0.0998  -1.3549
N       1.1059  -1.5544  0.9674
N       -1.1459  -1.2191  -0.9853
N       -1.4966  -0.0710  1.3158
H       2.8964  -2.5234  0.5462
H       1.7973  -2.7335  -0.8144
H       -3.2229  -0.5372  -0.7851
H       -2.8720  -2.2991  -0.8222
H       1.6722  1.1210  -1.1505
H       1.1526  0.0171  -2.2959
H       -1.8518  0.8621  1.1477
H       -1.0408  -0.0479  2.2175
H       -2.1385  -2.1013  1.5036
H       -3.3914  -0.8740  1.5705
H       0.5958  -2.3279  1.3445
H       1.4270  -0.9138  1.7170
H       3.3446  -0.7933  -1.7855
H       3.3164  -0.1773  -0.1151
H       -0.6165  -2.0913  -1.0334
H       -1.1481  -0.7746  -1.8920
