27

Co      0.0000  0.0152  -0.0034
Cl      -1.1104  1.6520  -1.2384
Cl      1.1814  1.4712  1.3909
C       2.6997  -0.7211  -0.7936
C       2.1508  -1.9654  -0.1306
C       -2.5585  -1.3322  -0.4423
C       -2.4641  -1.1825  1.0626
N       1.5164  0.0157  -1.3303
N       1.1067  -1.4937  0.8349
N       -1.1588  -1.3339  -0.9912
N       -1.4989  -0.0843  1.3416
H       2.9204  -2.5322  0.3780
H       1.6857  -2.6161  -0.8571
H       -3.0703  -0.4876  -0.8746
H       -3.0791  -2.2323  -0.7286
H       1.7382  0.9879  -1.4844
H       1.2409  -0.3501  -2.2227
H       -1.9473  0.8118  1.2644
H       -1.1404  -0.1333  2.2795
H       -2.0957  -2.0904  1.5212
H       -3.4300  -0.9734  1.4914
H       0.5828  -2.2720  1.1865
H       1.5543  -1.0620  1.6216
H       3.4123  -0.9548  -1.5712
H       3.1855  -0.0830  -0.0701
H       -0.7871  -2.2662  -0.9608
H       -1.1981  -1.0596  -1.9535
