27

Co      -0.0609  0.0186  -0.0205
Cl      -1.0784  1.6028  -1.2041
Cl      1.2114  1.5107  1.4284
C       2.7864  -0.6902  -0.8084
C       2.1740  -2.0468  -0.1090
C       -2.5973  -1.3674  -0.4873
C       -2.4547  -1.1958  1.0654
N       1.4977  0.0611  -1.4155
N       1.0742  -1.5080  0.8843
N       -1.1668  -1.3035  -0.9851
N       -1.4413  -0.0532  1.3128
H       2.8515  -2.7698  0.3897
H       1.6240  -2.5819  -0.9028
H       -3.0958  -0.4899  -0.8872
H       -3.1098  -2.2498  -0.8437
H       1.6659  1.0492  -1.5432
H       1.2753  -0.3128  -2.3223
H       -1.9050  0.8459  1.3186
H       -0.9993  -0.1356  2.2187
H       -2.0700  -2.0873  1.5437
H       -3.3894  -0.9473  1.5468
H       0.5379  -2.2517  1.2984
H       1.5393  -1.0255  1.6368
H       3.4975  -0.8855  -1.6038
H       3.2366  -0.0041  -0.0957
H       -0.7273  -2.2133  -0.8988
H       -1.1537  -1.0557  -1.9566
