27

Co      -0.0106  -0.0739  0.0010
Cl      -1.1030  1.6474  -1.2302
Cl      1.1718  1.4713  1.3788
C       2.6631  -0.7036  -0.8166
C       2.1252  -1.9245  -0.1059
C       -2.5169  -1.2925  -0.4400
C       -2.4059  -1.1492  1.0620
N       1.4741  0.0590  -1.2781
N       1.0437  -1.4395  0.8122
N       -1.1137  -1.2693  -0.9786
N       -1.4383  -0.0534  1.2791
H       2.8855  -2.4431  0.4574
H       1.6912  -2.6270  -0.8052
H       -3.0429  -0.4589  -0.8644
H       -3.0115  -2.2068  -0.7346
H       1.6651  1.0483  -1.2931
H       1.2181  -0.1886  -2.2145
H       -1.8697  0.8435  1.1052
H       -1.1129  -0.0096  2.2288
H       -2.0227  -2.0500  1.5195
H       -3.3564  -0.9290  1.5165
H       0.5417  -2.2171  1.1936
H       1.4772  -0.9678  1.5890
H       3.3005  -0.9673  -1.6433
H       3.2195  -0.0795  -0.1415
H       -0.7536  -2.2034  -1.0040
H       -1.1492  -0.9344  -1.9225
