27

Co      -0.0697  -0.0290  -0.0143
Cl      -1.0665  1.5883  -1.2025
Cl      1.2029  1.5119  1.4182
C       2.7904  -0.6940  -0.8369
C       2.1697  -2.0190  -0.0907
C       -2.5695  -1.3676  -0.4757
C       -2.4659  -1.1772  1.0759
N       1.4941  0.0739  -1.3900
N       1.0048  -1.4485  0.8202
N       -1.1255  -1.2076  -0.9431
N       -1.4091  -0.0686  1.2891
H       2.8204  -2.6863  0.5005
H       1.6748  -2.6142  -0.8610
H       -3.1213  -0.5354  -0.8919
H       -2.9988  -2.2975  -0.8440
H       1.6462  1.0709  -1.4348
H       1.2829  -0.2269  -2.3241
H       -1.8418  0.8425  1.2575
H       -0.9853  -0.1203  2.2011
H       -2.1341  -2.0718  1.5930
H       -3.3980  -0.8619  1.5320
H       0.4590  -2.1877  1.2270
H       1.4401  -0.9573  1.5866
H       3.4412  -0.9266  -1.6676
H       3.3002  -0.0154  -0.1680
H       -0.6606  -2.1053  -0.9247
H       -1.1198  -0.8934  -1.8933
