27

Co      0.0482  0.0405  0.0232
Cl      -1.1010  1.6402  -1.2425
Cl      1.1107  1.3808  1.3163
C       2.5827  -0.7205  -0.8102
C       2.0688  -1.8250  -0.1250
C       -2.4520  -1.2755  -0.4067
C       -2.4378  -1.1421  1.0554
N       1.5677  0.0267  -1.3715
N       1.0619  -1.5437  0.8509
N       -1.0902  -1.3608  -1.0030
N       -1.5355  -0.0889  1.4280
H       2.9561  -2.2328  0.3475
H       1.6887  -2.5876  -0.7881
H       -2.9668  -0.4661  -0.8860
H       -2.9913  -2.1878  -0.6107
H       1.8470  0.9772  -1.5396
H       1.2582  -0.3379  -2.2555
H       -1.9705  0.8077  1.3419
H       -1.2288  -0.1713  2.3781
H       -2.0868  -2.0663  1.4962
H       -3.4524  -0.9950  1.4073
H       0.5345  -2.4047  0.9983
H       1.4440  -1.2699  1.7518
H       3.3101  -1.1037  -1.5235
H       3.1166  -0.1092  -0.1113
H       -0.7783  -2.3087  -1.0066
H       -1.1657  -1.0710  -1.9590
