27

Co      -0.0082  -0.0690  -0.0040
Cl      -1.1055  1.6498  -1.2326
Cl      1.1743  1.4738  1.3837
C       2.6631  -0.7011  -0.8239
C       2.1202  -1.9196  -0.1010
C       -2.5021  -1.2925  -0.4376
C       -2.4108  -1.1468  1.0718
N       1.4962  0.0762  -1.3174
N       1.0535  -1.4763  0.8540
N       -1.1186  -1.3061  -1.0277
N       -1.4727  -0.0338  1.3355
H       2.8977  -2.4505  0.4231
H       1.6666  -2.6049  -0.8027
H       -3.0110  -0.4442  -0.8570
H       -3.0361  -2.1871  -0.7199
H       1.6945  1.0631  -1.3275
H       1.2475  -0.1714  -2.2562
H       -1.9090  0.8606  1.1813
H       -1.1399  -0.0169  2.2828
H       -2.0227  -2.0402  1.5367
H       -3.3834  -0.9560  1.4919
H       0.5515  -2.2686  1.2009
H       1.4797  -1.0267  1.6454
H       3.3104  -0.9919  -1.6335
H       3.2195  -0.0721  -0.1537
H       -0.7756  -2.2476  -1.0874
H       -1.1762  -0.9442  -1.9618
