27

Co      -0.0043  -0.0228  -0.0004
Cl      -1.1208  1.6789  -1.2488
Cl      1.1918  1.4926  1.4007
C       2.6758  -0.7162  -0.7807
C       2.1539  -1.9739  -0.1318
C       -2.5732  -1.3341  -0.4484
C       -2.4371  -1.1703  1.0473
N       1.4667  0.0095  -1.2671
N       1.1060  -1.4734  0.8152
N       -1.1613  -1.3173  -0.9660
N       -1.4333  -0.0966  1.2631
H       2.9210  -2.5248  0.3977
H       1.7010  -2.6419  -0.8522
H       -3.1022  -0.5060  -0.8893
H       -3.0674  -2.2538  -0.7268
H       1.6720  0.9897  -1.3894
H       1.1894  -0.3250  -2.1681
H       -1.8658  0.8075  1.1571
H       -1.0803  -0.1094  2.2035
H       -2.0755  -2.0836  1.5003
H       -3.3736  -0.9207  1.5196
H       0.6024  -2.2407  1.2215
H       1.5684  -0.9994  1.5744
H       3.3694  -0.9100  -1.5865
H       3.1671  -0.0867  -0.0541
H       -0.7870  -2.2477  -0.9197
H       -1.1840  -1.0534  -1.9327
