27

Co      0.0086  0.0568  0.0214
Cl      -1.0605  1.5740  -1.2085
Cl      1.0826  1.3208  1.2734
C       2.5341  -0.7069  -0.7894
C       2.0639  -1.8311  -0.1154
C       -2.4356  -1.2829  -0.4238
C       -2.3732  -1.0816  1.0265
N       1.4988  0.0472  -1.2811
N       1.1008  -1.5070  0.8734
N       -1.0843  -1.2888  -1.0327
N       -1.4251  -0.0690  1.3706
H       2.9671  -2.2309  0.3381
H       1.6640  -2.6049  -0.7579
H       -3.0404  -0.5465  -0.9367
H       -2.8990  -2.2594  -0.5549
H       1.7824  0.9986  -1.4156
H       1.1810  -0.2806  -2.1759
H       -1.8429  0.8491  1.3681
H       -1.0649  -0.2055  2.2922
H       -2.0404  -2.0105  1.4759
H       -3.3637  -0.8842  1.4129
H       0.6323  -2.3516  1.1463
H       1.5314  -1.1342  1.6991
H       3.2310  -1.0420  -1.5476
H       3.0875  -0.1183  -0.0875
H       -0.7346  -2.2173  -1.0504
H       -1.1747  -0.9733  -1.9783
