27

Co      -0.0609  0.0108  -0.0210
Cl      -1.0701  1.5833  -1.1846
Cl      1.1975  1.4856  1.4117
C       2.6947  -0.7028  -0.7948
C       2.1214  -1.9388  -0.1320
C       -2.5579  -1.2988  -0.4602
C       -2.3949  -1.1723  1.0378
N       1.5345  0.0384  -1.3859
N       1.1042  -1.5085  0.8810
N       -1.1610  -1.3184  -0.9878
N       -1.4632  -0.0449  1.2865
H       2.8995  -2.5431  0.3283
H       1.6242  -2.5608  -0.8684
H       -3.0678  -0.4460  -0.8811
H       -3.0868  -2.1923  -0.7424
H       1.7472  1.0177  -1.4856
H       1.3108  -0.3001  -2.3011
H       -1.9386  0.8409  1.2285
H       -1.0661  -0.0808  2.2056
H       -1.9427  -2.0732  1.4409
H       -3.3356  -1.0246  1.5478
H       0.6467  -2.3092  1.2791
H       1.5656  -1.0311  1.6364
H       3.4321  -0.9670  -1.5436
H       3.1644  -0.0563  -0.0670
H       -0.7748  -2.2471  -0.8799
H       -1.1638  -1.1035  -1.9701
