27

Co      0.0474  -0.0195  0.0365
Cl      -1.0894  1.6236  -1.2335
Cl      1.0899  1.3494  1.2887
C       2.5462  -0.6797  -0.7961
C       2.0424  -1.8388  -0.0517
C       -2.4524  -1.3096  -0.4553
C       -2.3887  -1.1084  1.0604
N       1.4449  0.1064  -1.3065
N       1.0499  -1.4751  0.8452
N       -1.0760  -1.2681  -1.0273
N       -1.4043  -0.0357  1.3476
H       2.9636  -2.3685  0.2479
H       1.5130  -2.4891  -0.7384
H       -2.9161  -0.4839  -0.9702
H       -3.0578  -2.2055  -0.5864
H       1.7642  1.0495  -1.4973
H       1.3572  -0.2724  -2.2566
H       -1.8975  0.8447  1.3166
H       -1.1428  -0.1181  2.3137
H       -2.0282  -1.9735  1.6151
H       -3.4104  -0.9177  1.3870
H       0.5825  -2.3117  1.1470
H       1.5937  -1.2263  1.6790
H       3.2340  -1.2258  -1.4860
H       3.1143  0.0273  -0.2153
H       -0.8431  -2.2441  -1.1219
H       -1.2022  -0.9577  -1.9770
