27

Co      0.0763  0.0213  0.0076
Cl      -1.0673  1.5802  -1.2052
Cl      1.1084  1.3700  1.3148
C       2.5076  -0.6749  -0.7797
C       2.0381  -1.8574  -0.0505
C       -2.4679  -1.3310  -0.4593
C       -2.3922  -1.1012  1.0632
N       1.4030  0.1117  -1.2827
N       1.0697  -1.4848  0.8609
N       -1.1337  -1.3694  -1.1444
N       -1.4366  -0.0121  1.4067
H       2.9822  -2.3761  0.2278
H       1.5010  -2.5058  -0.7308
H       -2.9113  -0.4873  -0.9682
H       -3.1535  -2.1957  -0.5342
H       1.7480  1.0436  -1.5420
H       1.2761  -0.3143  -2.2067
H       -1.9368  0.8676  1.4215
H       -1.1596  -0.1477  2.3655
H       -2.0318  -1.9568  1.6283
H       -3.4365  -0.9375  1.3544
H       0.5684  -2.3033  1.1512
H       1.6157  -1.2454  1.6954
H       3.2100  -1.1762  -1.4714
H       3.0543  0.0334  -0.1781
H       -0.9415  -2.3610  -1.2860
H       -1.3192  -1.0355  -2.0860
