27

Co      -0.0781  -0.0636  -0.0090
Cl      -1.0913  1.6391  -1.2188
Cl      1.1886  1.5006  1.3936
C       2.7410  -0.7029  -0.8858
C       2.1881  -1.9919  -0.1074
C       -2.5170  -1.2705  -0.4550
C       -2.3778  -1.1550  1.0561
N       1.4971  0.0829  -1.3058
N       0.9831  -1.5091  0.8564
N       -1.0833  -1.2697  -0.9309
N       -1.4096  -0.0472  1.2573
H       2.9350  -2.4618  0.5290
H       1.7839  -2.7499  -0.7714
H       -3.0233  -0.4296  -0.8949
H       -3.0056  -2.1843  -0.7664
H       1.6583  1.0882  -1.2221
H       1.2539  -0.0803  -2.2732
H       -1.8604  0.8420  1.1116
H       -1.0461  -0.0003  2.1933
H       -1.9412  -2.0609  1.4583
H       -3.2997  -0.9688  1.5817
H       0.5022  -2.3091  1.2235
H       1.4069  -1.0470  1.6460
H       3.4001  -0.8855  -1.7268
H       3.2555  -0.0755  -0.1752
H       -0.6930  -2.1950  -0.8413
H       -1.0609  -1.0273  -1.9067
