27

Co      -0.0467  0.0069  -0.0433
Cl      -1.0623  1.5757  -1.1941
Cl      1.1987  1.5034  1.4139
C       2.7340  -0.6919  -0.8181
C       2.1823  -2.0546  -0.0761
C       -2.5928  -1.3762  -0.4718
C       -2.4781  -1.1875  1.0756
N       1.4459  0.0989  -1.3605
N       1.0467  -1.5133  0.8703
N       -1.1405  -1.1978  -0.9268
N       -1.4023  -0.0853  1.2639
H       2.8895  -2.6822  0.4712
H       1.6938  -2.6707  -0.8297
H       -3.1551  -0.5483  -0.8882
H       -3.0056  -2.3125  -0.8478
H       1.6316  1.0895  -1.4017
H       1.2260  -0.1857  -2.2964
H       -1.8413  0.8259  1.2580
H       -0.9553  -0.1501  2.1653
H       -2.1546  -2.0863  1.5904
H       -3.4037  -0.8533  1.5446
H       0.5071  -2.2525  1.2894
H       1.4905  -1.0099  1.6264
H       3.3909  -0.8827  -1.6594
H       3.2335  -0.0197  -0.1346
H       -0.6570  -2.0872  -0.8580
H       -1.1410  -0.9361  -1.8959
