27

Co      -0.0018  -0.0179  -0.0053
Cl      -1.1233  1.6814  -1.2513
Cl      1.1942  1.4951  1.4056
C       2.6758  -0.7137  -0.7881
C       2.1490  -1.9690  -0.1269
C       -2.5585  -1.3341  -0.4460
C       -2.4420  -1.1678  1.0571
N       1.4888  0.0267  -1.3064
N       1.1159  -1.5102  0.8569
N       -1.1662  -1.3541  -1.0151
N       -1.4677  -0.0769  1.3195
H       2.9332  -2.5322  0.3633
H       1.6765  -2.6198  -0.8497
H       -3.0703  -0.4913  -0.8819
H       -3.0919  -2.2341  -0.7121
H       1.7014  1.0044  -1.4238
H       1.2189  -0.3078  -2.2099
H       -1.9050  0.8247  1.2332
H       -1.1073  -0.1168  2.2575
H       -2.0755  -2.0738  1.5175
H       -3.4006  -0.9477  1.4950
H       0.6122  -2.2922  1.2288
H       1.5708  -1.0583  1.6308
H       3.3792  -0.9346  -1.5767
H       3.1671  -0.0793  -0.0664
H       -0.8091  -2.2919  -1.0031
H       -1.2110  -1.0632  -1.9719
