27

Co      -0.0060  0.0107  -0.0019
Cl      -1.1170  1.6470  -1.2295
Cl      1.1919  1.4897  1.3900
C       2.7881  -0.7389  -0.8722
C       2.2368  -2.0380  -0.1270
C       -2.6209  -1.3112  -0.4445
C       -2.4635  -1.2145  1.0644
N       1.5163  0.0357  -1.2565
N       1.0516  -1.4683  0.8134
N       -1.1832  -1.3169  -0.9355
N       -1.5058  -0.0848  1.2635
H       2.9651  -2.5194  0.5320
H       1.8258  -2.7891  -0.7924
H       -3.1189  -0.4523  -0.8643
H       -3.1265  -2.2112  -0.7682
H       1.7165  1.0249  -1.3090
H       1.2035  -0.2194  -2.1721
H       -1.9818  0.7878  1.0776
H       -1.1883  -0.0172  2.2222
H       -2.0174  -2.1229  1.4560
H       -3.3863  -1.0408  1.5987
H       0.5010  -2.2257  1.1825
H       1.4961  -1.0271  1.5991
H       3.4559  -0.8635  -1.7272
H       3.2890  -0.1207  -0.1329
H       -0.8101  -2.2513  -0.8573
H       -1.1822  -1.0797  -1.9144
