27

Co      0.0025  -0.0003  -0.0050
Cl      -1.0735  1.6009  -1.2015
Cl      1.1397  1.4167  1.3517
C       2.5688  -0.6918  -0.7896
C       2.0618  -1.8617  -0.0691
C       -2.4512  -1.2749  -0.4614
C       -2.3676  -1.1407  1.0621
N       1.4726  0.0885  -1.3516
N       1.0642  -1.5296  0.8433
N       -1.0892  -1.3625  -1.0529
N       -1.4706  0.0011  1.3873
H       2.9931  -2.3989  0.2179
H       1.5407  -2.4971  -0.7710
H       -2.8218  -0.3694  -0.9377
H       -3.1708  -2.0929  -0.6240
H       1.8019  1.0311  -1.5524
H       1.4168  -0.3053  -2.3050
H       -2.0122  0.8553  1.3740
H       -1.1783  -0.0821  2.3441
H       -1.9145  -1.9914  1.5629
H       -3.4007  -1.0666  1.4103
H       0.6193  -2.3804  1.1475
H       1.5961  -1.2680  1.6750
H       3.3000  -1.2213  -1.4462
H       3.0908  0.0309  -0.1815
H       -0.8735  -2.3515  -1.0305
H       -1.1973  -1.1685  -2.0421
