27

Co      -0.0004  0.0152  -0.0224
Cl      -1.1104  1.6478  -1.2343
Cl      1.1814  1.4757  1.3951
C       2.6696  -0.7166  -0.7727
C       2.1366  -1.9559  -0.1335
C       -2.5734  -1.3197  -0.4215
C       -2.4747  -1.1991  1.0555
N       1.5457  0.0419  -1.4067
N       1.1411  -1.5744  0.9184
N       -1.1582  -1.2887  -0.9286
N       -1.5063  -0.1064  1.3056
H       2.8583  -2.5263  0.4388
H       1.7336  -2.6136  -0.8977
H       -3.1793  -0.4950  -0.7763
H       -2.9489  -2.2573  -0.8602
H       1.7070  1.0347  -1.4238
H       1.1205  -0.2352  -2.2780
H       -1.8817  0.8197  1.1797
H       -1.0540  -0.1242  2.2045
H       -2.1413  -2.1481  1.4605
H       -3.3957  -0.9221  1.5560
H       0.5814  -2.3522  1.2052
H       1.4453  -1.0283  1.7209
H       3.3206  -0.8668  -1.6307
H       3.2113  -0.1505  -0.0327
H       -0.6370  -2.1622  -0.8250
H       -1.1153  -0.9889  -1.8838
