27

Co      0.0000  -0.0065  0.0035
Cl      -1.0974  1.6060  -1.2125
Cl      1.1632  1.4393  1.3575
C       2.7663  -0.7097  -0.8329
C       2.1934  -2.0202  -0.0838
C       -2.5919  -1.3253  -0.4574
C       -2.4371  -1.1906  1.0764
N       1.5016  0.1205  -1.3393
N       1.0955  -1.4749  0.8963
N       -1.1896  -1.3140  -1.0431
N       -1.5018  0.0003  1.3362
H       2.7938  -2.6698  0.5870
H       1.7462  -2.6428  -0.8630
H       -3.1496  -0.4370  -0.7450
H       -3.0478  -2.2059  -0.9306
H       1.6205  1.1282  -1.2872
H       1.0387  -0.0892  -2.2242
H       -1.9025  0.9098  1.1632
H       -1.0623  0.0319  2.2425
H       -2.0425  -2.0997  1.5040
H       -3.3551  -0.9434  1.5981
H       0.4484  -2.1792  1.2220
H       1.3982  -0.8964  1.6844
H       3.2601  -0.8372  -1.8278
H       3.4230  -0.1365  -0.1834
H       -0.6883  -2.1949  -1.0610
H       -1.1600  -0.8826  -1.9562
