27

Co      0.0482  0.0282  0.0237
Cl      -1.0789  1.6001  -1.2196
Cl      1.0865  1.3489  1.2859
C       2.6038  -0.6869  -0.8780
C       2.0759  -1.8524  -0.1092
C       -2.4296  -1.2509  -0.4146
C       -2.3997  -1.1147  1.0619
N       1.5353  0.0891  -1.3550
N       0.9786  -1.5278  0.9132
N       -1.0636  -1.3474  -1.0355
N       -1.5051  -0.0528  1.4279
H       2.9421  -2.2189  0.4271
H       1.6907  -2.6667  -0.7219
H       -2.9500  -0.4493  -0.9016
H       -2.9671  -2.1699  -0.5982
H       1.7759  1.0540  -1.4339
H       1.1957  -0.1948  -2.2588
H       -1.9412  0.8408  1.2994
H       -1.2135  -0.0935  2.3825
H       -2.0184  -2.0363  1.4785
H       -3.4041  -0.9893  1.4444
H       0.4314  -2.3789  1.0554
H       1.3672  -1.2640  1.8164
H       3.3229  -0.9896  -1.6307
H       3.1240  -0.0853  -0.1571
H       -0.7694  -2.2997  -1.0913
H       -1.1440  -1.0009  -1.9735
