27

Co      0.0047  0.0293  0.0159
Cl      -1.0469  1.5551  -1.1894
Cl      1.1166  1.3815  1.3192
C       2.5765  -0.7195  -0.8249
C       2.0622  -1.8021  -0.1190
C       -2.4024  -1.2578  -0.4211
C       -2.3666  -1.0879  1.0465
N       1.5339  0.0338  -1.3039
N       1.0183  -1.4573  0.7850
N       -1.0904  -1.4031  -1.1247
N       -1.5078  -0.0176  1.4705
H       2.9192  -2.1754  0.4322
H       1.7127  -2.6040  -0.7606
H       -2.9189  -0.4535  -0.9012
H       -2.9982  -2.1590  -0.5502
H       1.8046  0.9866  -1.4459
H       1.2041  -0.3007  -2.1939
H       -1.9417  0.8816  1.4183
H       -1.1834  -0.1315  2.4094
H       -1.9907  -1.9954  1.4924
H       -3.3953  -0.9820  1.3803
H       0.4895  -2.2977  0.9703
H       1.3910  -1.1409  1.6685
H       3.2441  -1.0959  -1.5860
H       3.1586  -0.1191  -0.1524
H       -0.8092  -2.3612  -1.2036
H       -1.2115  -1.0466  -2.0572
