27

Co      -0.0358  -0.0138  -0.0522
Cl      -1.1115  1.6690  -1.2358
Cl      1.2110  1.5240  1.4246
C       2.6739  -0.7335  -0.7675
C       2.2086  -2.0457  -0.0682
C       -2.5477  -1.3257  -0.4602
C       -2.4494  -1.2136  1.0871
N       1.4360  0.0817  -1.3030
N       1.1363  -1.5902  0.8237
N       -1.1284  -1.3252  -0.9652
N       -1.4833  -0.0371  1.3341
H       2.9801  -2.6341  0.4249
H       1.7670  -2.6664  -0.8417
H       -2.9722  -0.3859  -0.8153
H       -3.1294  -2.1499  -0.8837
H       1.6724  1.0614  -1.3469
H       1.2273  -0.1884  -2.2452
H       -1.9576  0.8469  1.2937
H       -1.0518  -0.0815  2.2465
H       -2.0629  -2.0907  1.5868
H       -3.4166  -0.9892  1.5118
H       0.6095  -2.3513  1.2098
H       1.5429  -1.0928  1.6042
H       3.2639  -0.9969  -1.6280
H       3.2540  -0.0682  -0.1443
H       -0.7014  -2.2391  -0.8178
H       -1.1341  -1.1498  -1.9641
