27

Co      0.0025  0.0080  -0.0050
Cl      -1.0818  1.6204  -1.2210
Cl      1.1536  1.4418  1.3684
C       2.5810  -0.7102  -0.7669
C       2.0767  -1.8693  -0.0901
C       -2.4651  -1.3076  -0.4422
C       -2.4103  -1.1407  1.0586
N       1.5019  0.0599  -1.3770
N       1.0897  -1.5498  0.8374
N       -1.1094  -1.3695  -1.0519
N       -1.4815  -0.0378  1.4131
H       2.9145  -2.4045  0.3389
H       1.6450  -2.5222  -0.8327
H       -2.9473  -0.4473  -0.8692
H       -3.0494  -2.1771  -0.7016
H       1.7642  1.0179  -1.5202
H       1.2528  -0.3024  -2.2796
H       -1.9208  0.8648  1.4045
H       -1.0953  -0.1603  2.3326
H       -2.0631  -2.0360  1.5557
H       -3.4172  -0.9500  1.4104
H       0.5656  -2.3733  1.0705
H       1.4726  -1.1859  1.6939
H       3.2360  -1.1207  -1.5251
H       3.1609  -0.0619  -0.1379
H       -0.7580  -2.3048  -1.0374
H       -1.1753  -1.0852  -2.0100
