27

Co      -0.0022  -0.0212  -0.0194
Cl      -1.0893  1.6269  -1.2179
Cl      1.2112  1.5404  1.4285
C       2.6544  -0.7253  -0.8368
C       2.1586  -1.9499  -0.0887
C       -2.5632  -1.3395  -0.4457
C       -2.4365  -1.1595  1.0558
N       1.4808  0.0699  -1.3024
N       1.0264  -1.5318  0.8123
N       -1.1804  -1.3726  -1.0317
N       -1.4527  -0.0715  1.3126
H       2.9592  -2.3957  0.4949
H       1.7855  -2.7036  -0.7713
H       -3.0783  -0.5060  -0.8901
H       -3.1041  -2.2439  -0.6930
H       1.7146  1.0476  -1.3438
H       1.2001  -0.1847  -2.2273
H       -1.8836  0.8298  1.2329
H       -1.0875  -0.1164  2.2456
H       -2.0783  -2.0604  1.5263
H       -3.3922  -0.9248  1.4930
H       0.4768  -2.3318  1.0663
H       1.4035  -1.1478  1.6644
H       3.2797  -1.0082  -1.6652
H       3.2306  -0.0899  -0.1818
H       -0.8263  -2.3102  -1.0307
H       -1.2359  -1.0803  -1.9909
