27

Co      0.0032  0.0359  0.0161
Cl      -1.1044  1.6409  -1.2378
Cl      1.1327  1.3976  1.3225
C       2.6571  -0.7175  -0.8383
C       2.1738  -1.9755  -0.0749
C       -2.5310  -1.3242  -0.4655
C       -2.4105  -1.1472  1.0573
N       1.4596  0.0843  -1.2434
N       1.0926  -1.5302  0.8626
N       -1.1333  -1.3203  -1.0159
N       -1.4327  -0.0480  1.3276
H       3.0816  -2.4605  0.3038
H       1.6638  -2.6764  -0.7222
H       -2.9765  -0.4830  -0.9853
H       -3.1524  -2.2118  -0.5995
H       1.7808  1.0348  -1.4094
H       1.3421  -0.2493  -2.1974
H       -1.9614  0.8176  1.3283
H       -1.1381  -0.1347  2.2871
H       -1.9889  -2.0162  1.5519
H       -3.4031  -0.9979  1.4611
H       0.6378  -2.3522  1.2311
H       1.6663  -1.2369  1.6591
H       3.3680  -1.0881  -1.5734
H       3.1674  -0.0240  -0.1854
H       -0.8786  -2.2942  -0.9999
H       -1.2323  -1.1126  -2.0009
