27

Co      0.0627  0.0223  0.0228
Cl      -1.0938  1.6112  -1.2336
Cl      1.1040  1.3691  1.2947
C       2.6609  -0.7258  -0.8527
C       2.1500  -1.9275  -0.0726
C       -2.4970  -1.3146  -0.4250
C       -2.4675  -1.1526  1.0886
N       1.4898  0.0894  -1.2656
N       1.0259  -1.4538  0.7987
N       -1.1133  -1.2966  -1.0298
N       -1.5167  -0.0532  1.4126
H       2.9292  -2.3662  0.5323
H       1.7662  -2.6929  -0.7379
H       -3.0219  -0.4862  -0.8573
H       -3.0101  -2.2229  -0.7005
H       1.7394  1.0545  -1.3556
H       1.1490  -0.1907  -2.1696
H       -1.9512  0.8418  1.2871
H       -1.2114  -0.0872  2.3670
H       -2.1381  -2.0526  1.5927
H       -3.4687  -0.9308  1.4419
H       0.4104  -2.2266  1.0214
H       1.4075  -1.1137  1.6692
H       3.2372  -1.0351  -1.7152
H       3.2917  -0.1117  -0.2262
H       -0.7652  -2.2300  -1.1344
H       -1.2050  -0.9007  -1.9533
