27

Co      -0.0025  0.0103  0.0015
Cl      -1.1080  1.6495  -1.2360
Cl      1.1789  1.4687  1.3860
C       2.6997  -0.7235  -0.7862
C       2.1557  -1.9703  -0.1355
C       -2.5732  -1.3322  -0.4448
C       -2.4592  -1.1850  1.0528
N       1.4943  -0.0015  -1.2910
N       1.0968  -1.4569  0.7932
N       -1.1539  -1.2971  -0.9421
N       -1.4646  -0.1039  1.2851
H       2.9081  -2.5248  0.4124
H       1.7102  -2.6382  -0.8595
H       -3.1022  -0.5024  -0.8820
H       -3.0545  -2.2519  -0.7433
H       1.7087  0.9732  -1.4501
H       1.2115  -0.3672  -2.1810
H       -1.9080  0.7946  1.1883
H       -1.1134  -0.1259  2.2255
H       -2.0957  -2.1002  1.5040
H       -3.4030  -0.9464  1.5159
H       0.5730  -2.2205  1.1792
H       1.5519  -1.0031  1.5652
H       3.4024  -0.9303  -1.5810
H       3.1855  -0.0904  -0.0578
H       -0.7650  -2.2220  -0.8774
H       -1.1711  -1.0497  -1.9143
