27

Co      -0.0188  -0.0244  0.0103
Cl      -1.1323  1.6754  -1.2483
Cl      1.2002  1.4975  1.4026
C       2.7859  -0.7079  -0.8122
C       2.1979  -2.0373  -0.1054
C       -2.6399  -1.3566  -0.4662
C       -2.4493  -1.2033  1.0585
N       1.5259  0.0924  -1.3876
N       1.1369  -1.5321  0.9411
N       -1.2198  -1.3286  -1.0035
N       -1.4660  -0.0410  1.2784
H       2.8063  -2.7497  0.4983
H       1.7079  -2.6023  -0.9157
H       -3.2114  -0.4822  -0.7734
H       -3.0703  -2.2558  -0.9343
H       1.6285  1.1052  -1.3498
H       1.0969  -0.1461  -2.2706
H       -1.8546  0.8794  1.1348
H       -1.0038  -0.0261  2.1787
H       -2.0684  -2.1237  1.4775
H       -3.3392  -0.9166  1.6207
H       0.5344  -2.2565  1.2892
H       1.4645  -0.9423  1.7112
H       3.3406  -0.8245  -1.7626
H       3.3858  -0.1215  -0.1292
H       -0.7018  -2.2063  -0.9679
H       -1.1535  -0.9419  -1.9306
