27

Co      0.0482  0.0341  0.0266
Cl      -1.1100  1.6342  -1.2395
Cl      1.1167  1.3808  1.3133
C       2.6877  -0.7150  -0.8448
C       2.1320  -1.9193  -0.0902
C       -2.5164  -1.3023  -0.4332
C       -2.4593  -1.1776  1.0804
N       1.5527  0.0869  -1.3743
N       1.0651  -1.5201  0.8827
N       -1.1299  -1.3390  -1.0209
N       -1.5493  -0.0433  1.4166
H       2.9244  -2.4479  0.4072
H       1.6763  -2.6017  -0.7927
H       -2.9990  -0.4351  -0.8488
H       -3.0749  -2.1762  -0.7283
H       1.7970  1.0520  -1.4910
H       1.2504  -0.2393  -2.2734
H       -2.0127  0.8380  1.2992
H       -1.2324  -0.0773  2.3680
H       -2.0673  -2.0751  1.5397
H       -3.4564  -1.0235  1.4724
H       0.4851  -2.3241  1.0898
H       1.4653  -1.2000  1.7516
H       3.3383  -1.0588  -1.6375
H       3.2618  -0.0819  -0.1908
H       -0.7899  -2.2793  -1.0574
H       -1.1848  -0.9995  -1.9625
