27

Co      0.0457  0.0292  0.0315
Cl      -1.1075  1.6317  -1.2370
Cl      1.1143  1.3784  1.3084
C       2.6877  -0.7175  -0.8374
C       2.1369  -1.9242  -0.0951
C       -2.5311  -1.3023  -0.4357
C       -2.4544  -1.1800  1.0706
N       1.5306  0.0697  -1.3350
N       1.0553  -1.4833  0.8410
N       -1.1250  -1.3022  -0.9718
N       -1.5150  -0.0629  1.3601
H       2.9121  -2.4406  0.4416
H       1.7008  -2.6238  -0.7952
H       -3.0309  -0.4498  -0.8561
H       -3.0504  -2.1958  -0.7430
H       1.7675  1.0373  -1.4566
H       1.2209  -0.2564  -2.2317
H       -1.9735  0.8208  1.2232
H       -1.2054  -0.0699  2.3140
H       -2.0673  -2.0849  1.5225
H       -3.4294  -0.9965  1.4970
H       0.4753  -2.2725  1.0824
H       1.4629  -1.1411  1.6951
H       3.3285  -1.0342  -1.6473
H       3.2618  -0.0893  -0.1785
H       -0.7678  -2.2352  -0.9740
H       -1.1578  -0.9897  -1.9232
