27

Co      -0.0084  0.0671  0.0316
Cl      -1.0539  1.5648  -1.1861
Cl      1.1202  1.3777  1.3195
C       2.5867  -0.7112  -0.8165
C       2.0712  -1.8318  -0.1241
C       -2.4766  -1.2715  -0.4584
C       -2.3405  -1.1114  1.0109
N       1.5091  0.0102  -1.2840
N       1.0406  -1.4705  0.7909
N       -1.1177  -1.3854  -1.0300
N       -1.4285  -0.0512  1.3335
H       3.0210  -2.2465  0.2566
H       1.6186  -2.5844  -0.7507
H       -2.9210  -0.4593  -1.0214
H       -3.1363  -2.1657  -0.4844
H       1.8514  0.9434  -1.5691
H       1.3683  -0.4305  -2.1968
H       -1.9607  0.8117  1.3442
H       -1.1632  -0.1628  2.2955
H       -1.8755  -1.9990  1.4341
H       -3.3399  -1.0536  1.4321
H       0.6111  -2.3398  1.0775
H       1.5935  -1.2539  1.6320
H       3.3864  -1.1583  -1.4505
H       3.0507  -0.0288  -0.1206
H       -0.9215  -2.3790  -0.9611
H       -1.2146  -1.2391  -2.0335
