27

Co      0.0088  0.0473  -0.0063
Cl      -1.0776  1.6120  -1.2168
Cl      1.1494  1.4312  1.3600
C       2.5397  -0.7157  -0.7853
C       2.0794  -1.8548  -0.1261
C       -2.4737  -1.2977  -0.4260
C       -2.3910  -1.1109  1.0283
N       1.5101  0.0306  -1.3228
N       1.1016  -1.5793  0.8799
N       -1.1356  -1.4079  -1.0688
N       -1.4653  -0.0756  1.3874
H       3.0007  -2.2512  0.3141
H       1.6933  -2.6200  -0.7819
H       -3.0146  -0.5117  -0.9259
H       -3.0275  -2.2238  -0.5577
H       1.7980  0.9823  -1.4754
H       1.2054  -0.3163  -2.2126
H       -1.8933  0.8347  1.3905
H       -1.0949  -0.2193  2.3097
H       -2.0371  -2.0339  1.4633
H       -3.3852  -0.9465  1.4155
H       0.6236  -2.4398  1.0999
H       1.5077  -1.2395  1.7352
H       3.2743  -1.0393  -1.5126
H       3.0547  -0.1085  -0.0649
H       -0.8190  -2.3545  -1.0439
H       -1.2262  -1.1486  -2.0342
