27

Co      0.0502  0.0262  0.0289
Cl      -1.0851  1.6186  -1.2257
Cl      1.0927  1.3598  1.2872
C       2.5633  -0.6796  -0.8794
C       2.0961  -1.8890  -0.0881
C       -2.4697  -1.2787  -0.4449
C       -2.3646  -1.0961  1.0387
N       1.4421  0.0962  -1.2417
N       0.9807  -1.5281  0.8990
N       -1.0865  -1.3444  -1.0226
N       -1.3963  -0.0693  1.3213
H       3.0739  -2.2158  0.3276
H       1.6528  -2.7199  -0.6475
H       -2.9432  -0.4952  -1.0303
H       -3.0779  -2.2055  -0.4733
H       1.7578  1.0446  -1.3954
H       1.2659  -0.2165  -2.1868
H       -1.8957  0.8047  1.2580
H       -1.1662  -0.1255  2.2995
H       -1.9537  -1.9912  1.4867
H       -3.3586  -0.9696  1.4448
H       0.5175  -2.3954  1.1438
H       1.5309  -1.3459  1.7631
H       3.3408  -1.0326  -1.5686
H       3.0276  -0.0136  -0.1693
H       -0.9012  -2.3381  -1.0514
H       -1.2072  -1.1080  -1.9982
