27

Co      0.0478  -0.0014  0.0492
Cl      -1.1114  1.6678  -1.2605
Cl      1.1141  1.3768  1.3149
C       2.6604  -0.6761  -0.8074
C       2.0913  -1.9273  -0.1115
C       -2.4772  -1.3376  -0.4662
C       -2.4232  -1.1193  1.0692
N       1.4373  0.0260  -1.2692
N       1.0290  -1.3962  0.8055
N       -1.0949  -1.3506  -1.0678
N       -1.4294  -0.0554  1.3985
H       2.9156  -2.5154  0.2812
H       1.5253  -2.5455  -0.8056
H       -2.9139  -0.4992  -0.9968
H       -3.1214  -2.2191  -0.5729
H       1.6965  0.9755  -1.5860
H       1.2868  -0.4594  -2.1696
H       -1.9174  0.8298  1.3671
H       -1.1868  -0.1509  2.3790
H       -2.0770  -1.9936  1.6161
H       -3.4452  -0.9306  1.3850
H       0.5146  -2.1756  1.1750
H       1.6269  -1.1327  1.6001
H       3.4406  -1.0186  -1.4933
H       3.0881  0.0354  -0.1082
H       -0.8919  -2.3414  -1.1895
H       -1.2279  -1.0196  -2.0083
