27

Co      -0.0533  -0.0320  -0.0178
Cl      -1.0809  1.6087  -1.2119
Cl      1.1712  1.4558  1.3768
C       2.6968  -0.7183  -0.8216
C       2.1436  -1.9355  -0.1105
C       -2.4767  -1.2848  -0.4358
C       -2.4192  -1.1497  1.0773
N       1.5237  0.0554  -1.3236
N       1.0697  -1.4696  0.8260
N       -1.0917  -1.2703  -1.0116
N       -1.4961  -0.0294  1.3752
H       2.9103  -2.4661  0.4338
H       1.7013  -2.6228  -0.8140
H       -2.9954  -0.4424  -0.8575
H       -2.9899  -2.1853  -0.7325
H       1.7332  1.0387  -1.3451
H       1.2911  -0.2019  -2.2652
H       -1.9454  0.8634  1.2831
H       -1.1259  -0.0589  2.3068
H       -2.0292  -2.0430  1.5443
H       -3.4050  -0.9759  1.4765
H       0.5887  -2.2602  1.2116
H       1.5003  -0.9854  1.5971
H       3.3552  -0.9984  -1.6260
H       3.2398  -0.0895  -0.1398
H       -0.7105  -2.1983  -1.0275
H       -1.1477  -0.9464  -1.9571
