27

Co      0.0439  -0.0092  0.0296
Cl      -1.1031  1.6476  -1.2334
Cl      1.1072  1.3772  1.3094
C       2.5623  -0.6983  -0.7705
C       2.0624  -1.8504  -0.0832
C       -2.4696  -1.2624  -0.4452
C       -2.3703  -1.1533  1.0479
N       1.4734  0.0736  -1.3324
N       1.0719  -1.5123  0.8273
N       -1.0849  -1.3486  -0.9834
N       -1.4593  -0.0287  1.3395
H       2.8897  -2.3775  0.3605
H       1.6344  -2.5179  -0.8207
H       -2.9124  -0.3697  -0.8449
H       -3.0638  -2.1107  -0.7518
H       1.7238  1.0348  -1.4693
H       1.1950  -0.2761  -2.2305
H       -1.9168  0.8558  1.2114
H       -1.1379  -0.0388  2.2842
H       -1.9631  -2.0512  1.4951
H       -3.3499  -0.9956  1.4750
H       0.5256  -2.3254  1.0526
H       1.4603  -1.1716  1.6928
H       3.1813  -1.1109  -1.5584
H       3.1743  -0.0616  -0.1585
H       -0.7559  -2.2896  -0.9169
H       -1.1003  -1.0982  -1.9554
