27

Co      0.0032  0.0267  0.0166
Cl      -1.0734  1.6069  -1.2179
Cl      1.1025  1.3657  1.2951
C       2.5932  -0.6860  -0.8447
C       2.1277  -1.9421  -0.0538
C       -2.4610  -1.2996  -0.4736
C       -2.3576  -1.1078  1.0521
N       1.4086  0.1200  -1.2509
N       1.0196  -1.5379  0.8696
N       -1.0703  -1.3220  -1.0305
N       -1.3751  -0.0241  1.3456
H       3.0490  -2.3890  0.3338
H       1.6448  -2.6711  -0.6916
H       -2.8940  -0.4603  -1.0046
H       -3.0982  -2.1820  -0.5901
H       1.7195  1.0703  -1.3993
H       1.2841  -0.2014  -2.2097
H       -1.8898  0.8505  1.3720
H       -1.0690  -0.1342  2.2948
H       -1.9534  -1.9775  1.5576
H       -3.3575  -0.9503  1.4364
H       0.5472  -2.3702  1.1799
H       1.5648  -1.2874  1.7038
H       3.2889  -1.0792  -1.5834
H       3.1167  0.0129  -0.2120
H       -0.8246  -2.2944  -1.0103
H       -1.1681  -1.1139  -2.0153
