27

Co      -0.0533  -0.0040  -0.0298
Cl      -1.0832  1.5911  -1.1946
Cl      1.1775  1.4682  1.3716
C       2.7586  -0.7259  -0.8667
C       2.2427  -2.0604  -0.0472
C       -2.5961  -1.3041  -0.4682
C       -2.4278  -1.2154  1.0777
N       1.4760  0.1484  -1.3029
N       1.0652  -1.5454  0.8700
N       -1.1394  -1.2150  -0.9057
N       -1.4537  -0.0227  1.2398
H       2.9739  -2.6093  0.5395
H       1.8025  -2.7504  -0.7606
H       -3.0806  -0.4050  -0.8293
H       -3.0832  -2.1800  -0.9013
H       1.6882  1.1448  -1.2126
H       1.2517  0.0000  -2.2792
H       -1.9502  0.8457  1.1210
H       -1.0499  0.0271  2.1609
H       -1.9654  -2.0949  1.5144
H       -3.3446  -1.0115  1.6240
H       0.5351  -2.3049  1.2629
H       1.4794  -1.0479  1.6475
H       3.3043  -0.9671  -1.7808
H       3.3783  -0.0792  -0.2538
H       -0.6818  -2.1161  -0.7659
H       -1.1029  -1.0092  -1.8972
