27

Co      0.0644  -0.0093  0.0176
Cl      -1.1031  1.6441  -1.2369
Cl      1.1002  1.3538  1.3024
C       2.5335  -0.6845  -0.7834
C       2.0386  -1.8359  -0.1241
C       -2.4358  -1.2608  -0.4247
C       -2.3883  -1.1124  1.0581
N       1.4513  0.0241  -1.2376
N       1.0756  -1.4319  0.8333
N       -1.0746  -1.3240  -1.0373
N       -1.4742  -0.0595  1.3660
H       2.9968  -2.2804  0.2053
H       1.5296  -2.5534  -0.7505
H       -2.8859  -0.4407  -0.9637
H       -3.0735  -2.1533  -0.4985
H       1.7695  0.9648  -1.4931
H       1.3160  -0.3949  -2.1609
H       -1.9779  0.8082  1.2480
H       -1.2744  -0.0837  2.3597
H       -1.9828  -1.9961  1.5361
H       -3.4226  -1.0162  1.3902
H       0.6503  -2.2684  1.2055
H       1.6718  -1.1507  1.6183
H       3.3502  -1.0773  -1.4207
H       2.9681  -0.0148  -0.0588
H       -0.9083  -2.3276  -1.1209
H       -1.2318  -1.0467  -1.9969
