27

Co      0.0000  -0.0092  0.0004
Cl      -1.0573  1.5779  -1.1956
Cl      1.1270  1.4074  1.3331
C       2.6066  -0.6746  -0.8501
C       2.0932  -1.9107  -0.0611
C       -2.4575  -1.2921  -0.4662
C       -2.3719  -1.1157  1.0644
N       1.4293  0.1142  -1.2986
N       0.9739  -1.4880  0.8444
N       -1.0688  -1.3012  -1.0307
N       -1.4031  -0.0214  1.3475
H       2.9835  -2.3832  0.3486
H       1.6035  -2.6233  -0.7100
H       -2.8898  -0.4453  -0.9829
H       -3.0914  -2.1697  -0.6040
H       1.7181  1.0708  -1.4345
H       1.3332  -0.2127  -2.2638
H       -1.9157  0.8490  1.3222
H       -1.1166  -0.0888  2.3057
H       -1.9630  -1.9796  1.5752
H       -3.3782  -0.9672  1.4358
H       0.4980  -2.3142  1.1610
H       1.5113  -1.2255  1.6749
H       3.3251  -1.0910  -1.5605
H       3.1093  0.0364  -0.2123
H       -0.8314  -2.2789  -1.0568
H       -1.1764  -1.0552  -2.0034
