27

Co      -0.0258  -0.0473  0.0184
Cl      -1.0992  1.6120  -1.2143
Cl      1.1650  1.4499  1.3611
C       2.8017  -0.7006  -0.8688
C       2.1805  -1.9982  -0.0699
C       -2.5983  -1.3224  -0.4702
C       -2.4398  -1.1994  1.0781
N       1.5207  0.1227  -1.3606
N       1.0328  -1.4358  0.8608
N       -1.1509  -1.2055  -0.9387
N       -1.4543  -0.0248  1.2509
H       2.8409  -2.6606  0.5027
H       1.6637  -2.6059  -0.8195
H       -3.1115  -0.4460  -0.8392
H       -3.0677  -2.2175  -0.8736
H       1.6833  1.1235  -1.3343
H       1.2906  -0.1055  -2.3108
H       -1.9251  0.8536  1.0744
H       -1.1059  0.0509  2.1947
H       -2.0040  -2.0802  1.5375
H       -3.3606  -0.9736  1.6022
H       0.4798  -2.1793  1.2525
H       1.4723  -0.9599  1.6329
H       3.3812  -0.9863  -1.7420
H       3.3976  -0.0437  -0.2489
H       -0.7285  -2.1192  -0.9447
H       -1.1288  -0.8593  -1.8809
