27

Co      0.0640  -0.0108  0.0070
Cl      -1.0864  1.6032  -1.2199
Cl      1.1371  1.4242  1.3390
C       2.6292  -0.7091  -0.8441
C       2.1263  -1.9187  -0.0720
C       -2.5189  -1.3257  -0.4318
C       -2.4470  -1.1395  1.0784
N       1.4576  0.0989  -1.2619
N       1.0148  -1.4501  0.8146
N       -1.1487  -1.3277  -1.0708
N       -1.4839  -0.0474  1.3734
H       2.9125  -2.3647  0.5176
H       1.7305  -2.6764  -0.7384
H       -3.0515  -0.5024  -0.8662
H       -3.0479  -2.2356  -0.6746
H       1.6949  1.0695  -1.3323
H       1.1254  -0.1702  -2.1708
H       -1.9074  0.8531  1.2356
H       -1.1752  -0.0675  2.3262
H       -2.1147  -2.0361  1.5813
H       -3.4347  -0.9051  1.4534
H       0.4117  -2.2203  1.0574
H       1.4022  -1.0882  1.6706
H       3.2150  -1.0055  -1.7020
H       3.2469  -0.0908  -0.2100
H       -0.8216  -2.2698  -1.2062
H       -1.2537  -0.9090  -1.9873
