27

Co      -0.0370  0.0031  -0.0194
Cl      0.0035  -2.2905  -0.2149
Cl      0.0031  2.2885  0.2170
N       -1.4736  0.1460  -1.3512
N       -1.4671  -0.1440  1.3327
N       1.4680  0.1511  -1.3366
N       1.5399  -0.1488  1.3919
C       -2.7502  0.4079  -0.6315
C       -2.7504  -0.4101  0.6400
C       2.7535  0.4015  -0.6214
C       2.8028  -0.4180  0.6497
H       -1.1833  0.9020  -1.9508
H       -2.8216  1.4573  -0.4019
H       -3.5887  0.1310  -1.2484
H       -3.5836  -0.1164  1.2557
H       -2.8366  -1.4614  0.4194
H       -1.3903  0.7435  1.8102
H       -1.1530  -0.8940  1.9295
H       1.3999  -0.7292  -1.8273
H       1.1949  0.9127  -1.9330
H       3.5836  0.1381  -1.2568
H       2.8231  1.4509  -0.3840
H       2.8873  -1.4694  0.4359
H       3.6646  -0.1133  1.2271
H       1.2626  -0.8846  2.0148
H       1.4812  0.7500  1.8498
H       -1.4047  -0.7369  -1.8320
