27

Co      0.0000  -0.0031  0.0194
Cl      0.0002  -2.2822  -0.2187
Cl      -0.0001  2.2843  0.2168
N       -1.4119  0.1600  -1.3175
N       -1.4185  -0.1622  1.3358
N       1.4512  0.1599  -1.3543
N       1.3792  -0.1617  1.2990
C       -2.7473  0.4038  -0.6815
C       -2.7475  -0.4002  0.6729
C       2.7719  0.4111  -0.6914
C       2.7229  -0.3924  0.6633
H       -1.3833  0.8448  -2.0714
H       -2.6994  1.4653  -0.4666
H       -3.5696  0.2367  -1.3648
H       -3.5747  -0.2491  1.3578
H       -2.6857  -1.4611  0.4490
H       -1.5120  0.7230  1.8010
H       -1.4144  -0.8540  2.0918
H       1.5472  -0.7369  -1.8003
H       1.4326  0.8347  -2.1209
H       3.6137  0.2337  -1.3467
H       2.7226  1.4741  -0.4844
H       2.6600  -1.4534  0.4325
H       3.5327  -0.2554  1.3768
H       1.3630  -0.8630  2.0384
H       1.4649  0.7163  1.7786
H       -1.4981  -0.7303  -1.7786
