27

Co      -0.0125  0.0031  -0.0194
Cl      0.0002  -2.2941  -0.2149
Cl      -0.0001  2.2921  0.2170
N       -1.4615  0.1423  -1.3381
N       -1.4942  -0.1404  1.3564
N       1.4820  0.1491  -1.3881
N       1.5147  -0.1468  1.4066
C       -2.7384  0.4046  -0.5973
C       -2.7631  -0.4141  0.6157
C       2.7384  0.4023  -0.6020
C       2.7631  -0.4114  0.6204
H       -1.2663  0.8969  -1.9688
H       -2.8798  1.4568  -0.4036
H       -3.5586  0.0507  -1.2073
H       -3.5954  -0.0312  1.1972
H       -2.9193  -1.4670  0.4384
H       -1.6229  0.7068  1.8820
H       -1.2851  -0.8790  1.9990
H       1.6200  -0.6828  -1.9416
H       1.3074  0.9125  -2.0122
H       3.5813  0.0481  -1.1833
H       2.8745  1.4532  -0.4111
H       2.9142  -1.4643  0.4459
H       3.6181  -0.0281  1.1732
H       1.3260  -0.8942  2.0426
H       1.6522  0.6961  1.9420
H       -1.5904  -0.6929  -1.8817
