27

Co      0.0370  -0.0031  0.0194
Cl      -0.0030  -2.2626  -0.2161
Cl      -0.0034  2.2647  0.2141
N       -1.4788  0.1416  -1.3440
N       -1.4461  -0.1437  1.3255
N       1.4453  0.1363  -1.3217
N       1.4125  -0.1381  1.3033
C       -2.7779  0.4104  -0.6416
C       -2.7535  -0.3995  0.6231
C       2.7501  0.4094  -0.6420
C       2.7257  -0.3980  0.6237
H       -1.3840  0.8774  -2.0203
H       -2.8423  1.4637  -0.4317
H       -3.5672  0.1486  -1.3304
H       -3.5304  -0.1659  1.3408
H       -2.8041  -1.4507  0.3970
H       -1.5467  0.6995  1.8635
H       -1.3660  -0.8964  1.9891
H       1.5354  -0.7150  -1.8450
H       1.3236  0.8759  -1.9870
H       3.5281  0.1456  -1.3419
H       2.8165  1.4627  -0.4337
H       2.7785  -1.4494  0.3990
H       3.4912  -0.1624  1.3523
H       1.3054  -0.8944  1.9560
H       1.5022  0.7018  1.8454
H       -1.5797  -0.7142  -1.8632
