27

Co      0.0000  0.0000  0.0000
Cl      0.0002  -2.3152  -0.2168
Cl      -0.0001  2.3153  0.2169
N       -1.5144  0.1516  -1.3607
N       -1.5144  -0.1517  1.3606
N       1.5144  0.1515  -1.3606
N       1.5143  -0.1512  1.3606
C       -2.7563  0.4077  -0.6316
C       -2.7565  -0.4070  0.6316
C       2.7563  0.4077  -0.6318
C       2.7565  -0.4066  0.6318
H       -1.3093  0.9019  -1.9903
H       -2.8845  1.4638  -0.4498
H       -3.5898  0.0636  -1.2303
H       -3.5897  -0.0625  1.2304
H       -2.8852  -1.4617  0.4498
H       -1.6264  0.6877  1.8999
H       -1.3098  -0.9025  1.9898
H       1.6266  -0.6883  -1.8992
H       1.3095  0.9016  -1.9905
H       3.5897  0.0632  -1.2304
H       2.8846  1.4625  -0.4505
H       2.8855  -1.4614  0.4505
H       3.5897  -0.0616  1.2306
H       1.3097  -0.9017  1.9902
H       1.6261  0.6884  1.8995
H       -1.6267  -0.6880  -1.8996
