27

Co      0.0370  0.0244  0.0017
Cl      -0.0030  -2.3223  -0.2203
Cl      -0.0034  2.2887  0.2170
N       -1.4452  0.1394  -1.3391
N       -1.4452  -0.1446  1.3407
N       1.4117  0.1342  -1.3168
N       1.4116  -0.1389  1.3185
C       -2.7831  0.4171  -0.6459
C       -2.7834  -0.4164  0.6442
C       2.7554  0.4161  -0.6463
C       2.7556  -0.4150  0.6447
H       -1.3518  0.8649  -2.0269
H       -2.8217  1.4680  -0.4228
H       -3.5526  0.1872  -1.3777
H       -3.5526  -0.1895  1.3762
H       -2.8224  -1.4687  0.4177
H       -1.5500  0.6942  1.8871
H       -1.3337  -0.8991  1.9911
H       1.4925  -0.7283  -1.8248
H       1.2914  0.8634  -1.9937
H       3.5135  0.1842  -1.3892
H       2.7960  1.4684  -0.4247
H       2.7968  -1.4673  0.4197
H       3.5134  -0.1860  1.3877
H       1.2731  -0.8971  1.9580
H       1.5054  0.6964  1.8690
H       -1.5368  -0.7265  -1.8431
