27

Co      -0.0370  0.0000  0.0000
Cl      0.0035  -2.2894  -0.2159
Cl      0.0031  2.2895  0.2160
N       -1.4761  0.1448  -1.3537
N       -1.4368  -0.1449  1.3167
N       1.4704  0.1499  -1.3391
N       1.5096  -0.1496  1.3759
C       -2.7647  0.4084  -0.6449
C       -2.7404  -0.4003  0.6350
C       2.7681  0.4019  -0.6348
C       2.7928  -0.4082  0.6447
H       -1.2923  0.8886  -1.9986
H       -2.8167  1.4631  -0.4389
H       -3.6039  0.1362  -1.2635
H       -3.5596  -0.1400  1.2833
H       -2.7928  -1.4550  0.4218
H       -1.4804  0.7061  1.8433
H       -1.2437  -0.8990  1.9466
H       1.5250  -0.7051  -1.8604
H       1.3040  0.8993  -1.9808
H       3.5988  0.1433  -1.2720
H       2.8181  1.4567  -0.4210
H       2.8435  -1.4630  0.4382
H       3.6429  -0.1368  1.2525
H       1.3533  -0.8896  2.0320
H       1.5735  0.7126  1.8829
H       -1.5298  -0.7138  -1.8651
