27

Co      0.0000  0.0000  0.0000
Cl      0.0002  -2.2859  -0.2159
Cl      -0.0001  2.2859  0.2160
N       -1.4421  0.1625  -1.3153
N       -1.4421  -0.1626  1.3152
N       1.4421  0.1624  -1.3153
N       1.4420  -0.1621  1.3153
C       -2.7753  0.3888  -0.6416
C       -2.7755  -0.3881  0.6416
C       2.7754  0.3888  -0.6417
C       2.7755  -0.3877  0.6418
H       -1.4534  0.8580  -2.0724
H       -2.7738  1.4479  -0.4342
H       -3.6065  0.1687  -1.2947
H       -3.6042  -0.1677  1.2971
H       -2.7744  -1.4472  0.4342
H       -1.5467  0.7190  1.7883
H       -1.4538  -0.8585  2.0720
H       1.5492  -0.7196  -1.7875
H       1.4536  0.8577  -2.0704
H       3.6065  0.1706  -1.2948
H       2.7739  1.4479  -0.4348
H       2.7747  -1.4468  0.4348
H       3.6064  -0.1690  1.2950
H       1.4515  -0.8577  2.0701
H       1.5487  0.7197  1.7879
H       -1.5492  -0.7193  -1.7879
