27

Co      0.0000  0.0000  0.0000
Cl      0.0002  -2.2859  -0.2159
Cl      -0.0001  2.2859  0.2160
N       -1.4703  0.1669  -1.3164
N       -1.4703  -0.1671  1.3163
N       1.4703  0.1669  -1.3163
N       1.4702  -0.1666  1.3163
C       -2.7616  0.3935  -0.6603
C       -2.7618  -0.3928  0.6603
C       2.7617  0.3935  -0.6604
C       2.7618  -0.3924  0.6605
H       -1.3549  0.8650  -2.0314
H       -2.7638  1.4511  -0.4373
H       -3.5984  0.1844  -1.3087
H       -3.5983  -0.1833  1.3089
H       -2.7645  -1.4503  0.4374
H       -1.4360  0.7463  1.7466
H       -1.3554  -0.8656  2.0309
H       1.4362  -0.7470  -1.7458
H       1.3551  0.8647  -2.0294
H       3.5983  0.1862  -1.3103
H       2.7625  1.4511  -0.4380
H       2.7633  -1.4500  0.4380
H       3.5983  -0.1846  1.3105
H       1.3531  -0.8648  2.0291
H       1.4357  0.7471  1.7462
H       -1.4362  -0.7467  -1.7462
