27

Co      0.0000  0.0000  0.0000
Cl      0.0002  -2.2654  -0.2113
Cl      -0.0001  2.2654  0.2114
N       -1.4288  0.1607  -1.3559
N       -1.4288  -0.1608  1.3558
N       1.4288  0.1587  -1.3558
N       1.4288  -0.1584  1.3559
C       -2.7717  0.4033  -0.6709
C       -2.7720  -0.4026  0.6708
C       2.7718  0.4033  -0.6710
C       2.7720  -0.4022  0.6711
H       -1.2776  0.9116  -2.0027
H       -2.7935  1.4653  -0.4926
H       -3.6314  0.1355  -1.2647
H       -3.6291  -0.1344  1.2671
H       -2.7942  -1.4660  0.4926
H       -1.5513  0.6704  1.9099
H       -1.2780  -0.9122  2.0022
H       1.5556  -0.6711  -1.9073
H       1.2778  0.9095  -2.0048
H       3.6314  0.1370  -1.2649
H       2.7918  1.4686  -0.4913
H       2.7926  -1.4675  0.4914
H       3.6313  -0.1354  1.2650
H       1.2779  -0.9095  2.0045
H       1.5551  0.6712  1.9077
H       -1.5538  -0.6708  -1.9095
