27

Co      0.0000  0.0000  0.0000
Cl      0.0002  -2.2894  -0.2159
Cl      -0.0001  2.2895  0.2160
N       -1.5012  0.1490  -1.3447
N       -1.5012  -0.1491  1.3446
N       1.5012  0.1489  -1.3447
N       1.5012  -0.1486  1.3447
C       -2.7458  0.3972  -0.6229
C       -2.7460  -0.3965  0.6229
C       2.7459  0.3971  -0.6230
C       2.7460  -0.3960  0.6231
H       -1.2264  0.9040  -1.9487
H       -2.8445  1.4489  -0.4057
H       -3.5976  0.0904  -1.2094
H       -3.5998  -0.0893  1.2073
H       -2.8452  -1.4468  0.4058
H       -1.4347  0.7350  1.8265
H       -1.2268  -0.9045  1.9482
H       1.4327  -0.7356  -1.8258
H       1.2266  0.9037  -1.9489
H       3.5975  0.0900  -1.2096
H       2.8446  1.4475  -0.4064
H       2.8455  -1.4464  0.4064
H       3.5975  -0.0884  1.2097
H       1.2267  -0.9037  1.9486
H       1.4322  0.7357  1.8262
H       -1.4327  -0.7353  -1.8262
