27

Co      -0.0370  0.0000  0.0000
Cl      0.0035  -2.3116  -0.2168
Cl      0.0031  2.3117  0.2169
N       -1.4964  0.1489  -1.3276
N       -1.4964  -0.1490  1.3275
N       1.5300  0.1540  -1.3498
N       1.5299  -0.1537  1.3498
C       -2.7490  0.3958  -0.6231
C       -2.7492  -0.3951  0.6231
C       2.7768  0.3968  -0.6228
C       2.7770  -0.3957  0.6229
H       -1.2080  0.9068  -1.9251
H       -2.8546  1.4476  -0.4090
H       -3.5908  0.0822  -1.2202
H       -3.5930  -0.0811  1.2181
H       -2.8553  -1.4455  0.4090
H       -1.4220  0.7323  1.8127
H       -1.2085  -0.9073  1.9246
H       1.4643  -0.7314  -1.8298
H       1.2688  0.9077  -1.9588
H       3.6299  0.0845  -1.2090
H       2.8806  1.4472  -0.4083
H       2.8815  -1.4461  0.4083
H       3.6298  -0.0829  1.2092
H       1.2690  -0.9077  1.9584
H       1.4638  0.7315  1.8302
H       -1.4200  -0.7327  -1.8124
