27

Co      0.0000  0.0244  0.0017
Cl      0.0002  -2.2805  -0.2167
Cl      -0.0001  2.2469  0.2135
N       -1.4648  0.1442  -1.3171
N       -1.4648  -0.1494  1.3187
N       1.4649  0.1441  -1.3170
N       1.4648  -0.1489  1.3187
C       -2.7402  0.4072  -0.6611
C       -2.7405  -0.4065  0.6594
C       2.7403  0.4072  -0.6612
C       2.7405  -0.4061  0.6596
H       -1.2825  0.8672  -1.9852
H       -2.7683  1.4648  -0.4501
H       -3.5663  0.1727  -1.3109
H       -3.5663  -0.1750  1.3093
H       -2.7690  -1.4641  0.4451
H       -1.5070  0.7007  1.8455
H       -1.2644  -0.9014  1.9493
H       1.4938  -0.7333  -1.8010
H       1.2827  0.8669  -1.9854
H       3.5663  0.1723  -1.3125
H       2.7670  1.4648  -0.4507
H       2.7679  -1.4637  0.4457
H       3.5662  -0.1741  1.3109
H       1.2643  -0.9006  1.9497
H       1.5067  0.7014  1.8452
H       -1.4938  -0.7331  -1.8014
