27

Co      0.0000  0.0244  0.0017
Cl      0.0002  -2.2982  -0.2157
Cl      -0.0001  2.2646  0.2124
N       -1.4212  0.1507  -1.3274
N       -1.4212  -0.1559  1.3290
N       1.4212  0.1487  -1.3273
N       1.4211  -0.1535  1.3290
C       -2.7357  0.3917  -0.6427
C       -2.7360  -0.3910  0.6410
C       2.7358  0.3916  -0.6429
C       2.7360  -0.3905  0.6413
H       -1.3302  0.9021  -1.9861
H       -2.8223  1.4458  -0.4485
H       -3.5039  0.1088  -1.3496
H       -3.5038  -0.1111  1.3481
H       -2.8229  -1.4451  0.4435
H       -1.5101  0.6660  1.9039
H       -1.3122  -0.9363  1.9502
H       1.4987  -0.6986  -1.8576
H       1.3304  0.8999  -1.9882
H       3.5038  0.1103  -1.3498
H       2.8205  1.4477  -0.4472
H       2.8214  -1.4466  0.4422
H       3.5038  -0.1121  1.3482
H       1.3121  -0.9336  1.9525
H       1.5117  0.6667  1.9017
H       -1.4968  -0.6984  -1.8599
