27

Co      -0.0125  0.0031  -0.0194
Cl      0.0002  -2.3127  -0.2157
Cl      -0.0001  2.3107  0.2179
N       -1.4943  0.1322  -1.3269
N       -1.4878  -0.1303  1.3084
N       1.4756  0.1390  -1.3401
N       1.5475  -0.1366  1.3954
C       -2.7834  0.4043  -0.6268
C       -2.7836  -0.4064  0.6354
C       2.7589  0.3946  -0.6216
C       2.8082  -0.4111  0.6500
H       -1.1785  0.9313  -1.8727
H       -2.8389  1.4536  -0.3937
H       -3.6186  0.1465  -1.2570
H       -3.6134  -0.1319  1.2643
H       -2.8539  -1.4578  0.4113
H       -1.4181  0.7184  1.8488
H       -1.1482  -0.9232  1.8514
H       1.4130  -0.6943  -1.9085
H       1.1705  0.9567  -1.8668
H       3.5971  0.1466  -1.2540
H       2.8076  1.4440  -0.3840
H       2.8719  -1.4625  0.4359
H       3.6780  -0.1217  1.2243
H       1.2404  -0.9286  1.9487
H       1.4943  0.7151  1.9309
H       -1.4325  -0.7118  -1.8706
