27

Co      0.0000  0.0000  0.0000
Cl      0.0002  -2.2894  -0.2159
Cl      -0.0001  2.2895  0.2160
N       -1.4871  0.1475  -1.3532
N       -1.4871  -0.1477  1.3531
N       1.4872  0.1475  -1.3531
N       1.4871  -0.1472  1.3531
C       -2.7641  0.4099  -0.6356
C       -2.7643  -0.4091  0.6356
C       2.7642  0.4098  -0.6357
C       2.7643  -0.4087  0.6358
H       -1.1982  0.8983  -1.9571
H       -2.8417  1.4602  -0.4100
H       -3.6046  0.1256  -1.2474
H       -3.6068  -0.1245  1.2453
H       -2.8424  -1.4595  0.4100
H       -1.4207  0.7392  1.8307
H       -1.1986  -0.8989  1.9566
H       1.4186  -0.7398  -1.8300
H       1.1984  0.8980  -1.9573
H       3.6046  0.1252  -1.2476
H       2.8418  1.4602  -0.4106
H       2.8427  -1.4591  0.4106
H       3.6045  -0.1236  1.2477
H       1.1986  -0.8981  1.9570
H       1.4181  0.7399  1.8304
H       -1.4187  -0.7396  -1.8304
