27

Co      0.0000  0.0000  0.0000
Cl      0.0002  -2.2840  -0.2122
Cl      -0.0001  2.2840  0.2123
N       -1.4441  0.1622  -1.3128
N       -1.4441  -0.1624  1.3127
N       1.4441  0.1603  -1.3127
N       1.4440  -0.1600  1.3127
C       -2.7729  0.3910  -0.6558
C       -2.7731  -0.3903  0.6558
C       2.7730  0.3910  -0.6559
C       2.7731  -0.3899  0.6560
H       -1.3034  0.9111  -1.9671
H       -2.8278  1.4543  -0.4885
H       -3.6264  0.0911  -1.2450
H       -3.6241  -0.0900  1.2474
H       -2.8284  -1.4536  0.4885
H       -1.5616  0.6700  1.8655
H       -1.3038  -0.9117  1.9666
H       1.5659  -0.6706  -1.8629
H       1.3036  0.9089  -1.9692
H       3.6264  0.0926  -1.2451
H       2.8260  1.4562  -0.4873
H       2.8269  -1.4551  0.4873
H       3.6263  -0.0910  1.2453
H       1.3037  -0.9090  1.9689
H       1.5654  0.6707  1.8633
H       -1.5641  -0.6703  -1.8652
