27

Co      0.0000  0.0000  0.0000
Cl      0.0002  -2.2637  -0.2151
Cl      -0.0001  2.2637  0.2152
N       -1.4583  0.1644  -1.3224
N       -1.4583  -0.1645  1.3223
N       1.4583  0.1643  -1.3223
N       1.4583  -0.1640  1.3223
C       -2.7445  0.3944  -0.6603
C       -2.7447  -0.3937  0.6603
C       2.7446  0.3943  -0.6604
C       2.7447  -0.3932  0.6605
H       -1.3430  0.8616  -2.0382
H       -2.7408  1.4519  -0.4348
H       -3.5855  0.1912  -1.3036
H       -3.5855  -0.1901  1.3038
H       -2.7414  -1.4512  0.4348
H       -1.4266  0.7498  1.7508
H       -1.3434  -0.8622  2.0377
H       1.4268  -0.7504  -1.7501
H       1.3432  0.8613  -2.0362
H       3.5855  0.1931  -1.3052
H       2.7395  1.4519  -0.4354
H       2.7403  -1.4508  0.4354
H       3.5855  -0.1915  1.3053
H       1.3411  -0.8614  2.0359
H       1.4263  0.7505  1.7505
H       -1.4268  -0.7501  -1.7505
