27

Co      0.0000  0.0000  0.0000
Cl      0.0002  -2.2717  -0.2170
Cl      -0.0001  2.2718  0.2171
N       -1.5209  0.1333  -1.3402
N       -1.5209  -0.1334  1.3401
N       1.5209  0.1351  -1.3401
N       1.5209  -0.1348  1.3401
C       -2.7617  0.4079  -0.6087
C       -2.7620  -0.4072  0.6087
C       2.7618  0.4078  -0.6088
C       2.7620  -0.4067  0.6089
H       -1.3226  0.8759  -1.9806
H       -2.8395  1.4553  -0.3651
H       -3.5745  0.1485  -1.2673
H       -3.5767  -0.1474  1.2652
H       -2.8401  -1.4532  0.3651
H       -1.5087  0.7483  1.8203
H       -1.3231  -0.8764  1.9801
H       1.5048  -0.7489  -1.8215
H       1.3228  0.8775  -1.9790
H       3.5744  0.1463  -1.2674
H       2.8414  1.4521  -0.3676
H       2.8423  -1.4510  0.3676
H       3.5744  -0.1447  1.2676
H       1.3230  -0.8775  1.9786
H       1.5043  0.7490  1.8218
H       -1.5067  -0.7486  -1.8200
