27

Co      0.0000  0.0000  0.0000
Cl      0.0002  -2.2975  -0.2178
Cl      -0.0001  2.2976  0.2179
N       -1.5205  0.1391  -1.3646
N       -1.5205  -0.1393  1.3645
N       1.5205  0.1409  -1.3645
N       1.5204  -0.1406  1.3645
C       -2.7970  0.4162  -0.6328
C       -2.7972  -0.4155  0.6328
C       2.7971  0.4162  -0.6329
C       2.7972  -0.4151  0.6330
H       -1.3479  0.8742  -2.0229
H       -2.8197  1.4691  -0.4037
H       -3.6503  0.1815  -1.2521
H       -3.6503  -0.1805  1.2522
H       -2.8203  -1.4683  0.4037
H       -1.5873  0.7238  1.8674
H       -1.3483  -0.8747  2.0224
H       1.5857  -0.7244  -1.8686
H       1.3481  0.8758  -2.0213
H       3.6503  0.1793  -1.2522
H       2.8216  1.4672  -0.4062
H       2.8225  -1.4661  0.4062
H       3.6502  -0.1777  1.2524
H       1.3483  -0.8758  2.0209
H       1.5851  0.7245  1.8690
H       -1.5875  -0.7242  -1.8671
