27

Co      0.0245  0.0244  0.0017
Cl      -0.0030  -2.2841  -0.2167
Cl      -0.0034  2.2505  0.2135
N       -1.4333  0.1576  -1.3437
N       -1.4333  -0.1627  1.3453
N       1.4203  0.1591  -1.3715
N       1.4202  -0.1639  1.3731
C       -2.7880  0.4028  -0.6551
C       -2.7883  -0.4021  0.6534
C       2.7603  0.3995  -0.6601
C       2.7605  -0.3984  0.6585
H       -1.4467  0.8343  -2.1208
H       -2.7559  1.4604  -0.4366
H       -3.6197  0.2139  -1.3210
H       -3.6174  -0.2162  1.3217
H       -2.7565  -1.4611  0.4316
H       -1.5505  0.7084  1.8333
H       -1.4286  -0.8685  2.0850
H       1.5248  -0.7312  -1.8313
H       1.4273  0.8487  -2.1286
H       3.6033  0.2109  -1.3097
H       2.7233  1.4586  -0.4455
H       2.7241  -1.4575  0.4404
H       3.6032  -0.2127  1.3081
H       1.4067  -0.8825  2.0930
H       1.5378  0.6993  1.8754
H       -1.5395  -0.7407  -1.7892
