27

Co      0.0000  0.0000  0.0000
Cl      0.0002  -2.3116  -0.2168
Cl      -0.0001  2.3117  0.2169
N       -1.5036  0.1492  -1.3320
N       -1.5036  -0.1493  1.3319
N       1.5036  0.1491  -1.3319
N       1.5036  -0.1488  1.3319
C       -2.7587  0.4089  -0.6293
C       -2.7589  -0.4082  0.6292
C       2.7587  0.4089  -0.6294
C       2.7589  -0.4078  0.6295
H       -1.2950  0.8924  -1.9700
H       -2.8929  1.4650  -0.4474
H       -3.5790  0.0612  -1.2434
H       -3.5790  -0.0601  1.2436
H       -2.8935  -1.4629  0.4475
H       -1.6132  0.6949  1.8640
H       -1.2954  -0.8929  1.9695
H       1.6135  -0.6955  -1.8633
H       1.2952  0.8921  -1.9702
H       3.5790  0.0608  -1.2436
H       2.8930  1.4636  -0.4481
H       2.8938  -1.4625  0.4481
H       3.5789  -0.0592  1.2437
H       1.2953  -0.8921  1.9699
H       1.6130  0.6956  1.8637
H       -1.6135  -0.6952  -1.8637
