27

Co      0.0125  0.0244  0.0017
Cl      0.0002  -2.2822  -0.2130
Cl      -0.0001  2.2486  0.2097
N       -1.4364  0.1825  -1.3520
N       -1.4757  -0.1876  1.3904
N       1.4552  0.1737  -1.3386
N       1.4159  -0.1785  1.3035
C       -2.7340  0.3705  -0.6745
C       -2.7588  -0.3772  0.6826
C       2.7586  0.3801  -0.6799
C       2.7342  -0.3717  0.6684
H       -1.4549  0.8986  -2.0821
H       -2.7261  1.4343  -0.4861
H       -3.5730  0.1589  -1.3194
H       -3.6148  -0.1563  1.3004
H       -2.7513  -1.4410  0.4982
H       -1.5698  0.6663  1.9097
H       -1.4859  -0.9230  2.0978
H       1.5311  -0.7102  -1.8030
H       1.4632  0.8707  -2.0902
H       3.5943  0.1600  -1.3241
H       2.7542  1.4459  -0.4952
H       2.7305  -1.4374  0.4730
H       3.5501  -0.1667  1.3422
H       1.3935  -0.9143  2.0030
H       1.4950  0.6710  1.8251
H       -1.5097  -0.6912  -1.8435
