27

Co      0.0000  0.0000  0.0000
Cl      0.0002  -2.2673  -0.2151
Cl      -0.0001  2.2673  0.2152
N       -1.4474  0.1447  -1.3456
N       -1.4474  -0.1448  1.3455
N       1.4474  0.1446  -1.3455
N       1.4474  -0.1443  1.3455
C       -2.7516  0.4013  -0.6440
C       -2.7518  -0.4006  0.6439
C       2.7516  0.4013  -0.6441
C       2.7518  -0.4002  0.6442
H       -1.3860  0.8865  -2.0289
H       -2.7699  1.4604  -0.4468
H       -3.5852  0.1612  -1.2828
H       -3.5829  -0.1601  1.2852
H       -2.7706  -1.4597  0.4468
H       -1.6242  0.6822  1.9012
H       -1.3864  -0.8871  2.0284
H       1.6267  -0.6828  -1.9005
H       1.3862  0.8862  -2.0291
H       3.5852  0.1608  -1.2830
H       2.7700  1.4604  -0.4474
H       2.7709  -1.4593  0.4475
H       3.5851  -0.1592  1.2831
H       1.3863  -0.8863  2.0288
H       1.6262  0.6829  1.9009
H       -1.6267  -0.6825  -1.9009
