27

Co      0.0000  -0.0244  -0.0017
Cl      0.0002  -2.2566  -0.2116
Cl      -0.0001  2.2903  0.2150
N       -1.5010  0.1345  -1.3814
N       -1.5010  -0.1295  1.3796
N       1.5010  0.1344  -1.3813
N       1.5009  -0.1291  1.3796
C       -2.7932  0.4042  -0.6120
C       -2.7934  -0.4035  0.6137
C       2.7933  0.4042  -0.6122
C       2.7934  -0.4031  0.6139
H       -1.1913  0.9577  -1.8993
H       -2.8669  1.4517  -0.3812
H       -3.6517  0.1168  -1.1987
H       -3.6539  -0.1124  1.1982
H       -2.8676  -1.4510  0.3863
H       -1.4576  0.7216  1.9157
H       -1.2103  -0.9246  1.9342
H       1.4690  -0.6903  -1.9587
H       1.1915  0.9574  -1.9017
H       3.6517  0.1143  -1.1974
H       2.8685  1.4517  -0.3818
H       2.8693  -1.4506  0.3869
H       3.6516  -0.1093  1.1992
H       1.2124  -0.9238  1.9367
H       1.4551  0.7224  1.9154
H       -1.4690  -0.6900  -1.9591
