27

Co      0.0000  -0.0244  -0.0017
Cl      0.0002  -2.2967  -0.2188
Cl      -0.0001  2.3304  0.2223
N       -1.5085  0.1376  -1.3462
N       -1.5085  -0.1327  1.3444
N       1.5085  0.1394  -1.3461
N       1.5084  -0.1341  1.3444
C       -2.7793  0.4221  -0.6254
C       -2.7795  -0.4214  0.6270
C       2.7794  0.4221  -0.6255
C       2.7795  -0.4210  0.6273
H       -1.2084  0.8830  -1.9551
H       -2.8310  1.4706  -0.3782
H       -3.6268  0.1691  -1.2423
H       -3.6290  -0.1647  1.2419
H       -2.8317  -1.4699  0.3832
H       -1.4458  0.7799  1.7783
H       -1.2273  -0.8499  1.9900
H       1.4554  -0.7485  -1.8233
H       1.2086  0.8845  -1.9534
H       3.6267  0.1669  -1.2425
H       2.8330  1.4687  -0.3807
H       2.8339  -1.4676  0.3857
H       3.6267  -0.1619  1.2443
H       1.2273  -0.8509  1.9885
H       1.4414  0.7806  1.7799
H       -1.4573  -0.7483  -1.8218
