27

Co      0.0000  -0.0244  -0.0017
Cl      0.0002  -2.2549  -0.2153
Cl      -0.0001  2.2886  0.2188
N       -1.5264  0.1344  -1.3679
N       -1.4872  -0.1295  1.3293
N       1.4872  0.1362  -1.3310
N       1.5264  -0.1309  1.3661
C       -2.7923  0.4242  -0.6254
C       -2.7680  -0.4162  0.6173
C       2.7678  0.4168  -0.6157
C       2.7925  -0.4231  0.6273
H       -1.3098  0.8822  -1.9971
H       -2.8489  1.4703  -0.3754
H       -3.6036  0.1829  -1.2947
H       -3.5616  -0.1834  1.3139
H       -2.8250  -1.4622  0.3633
H       -1.4634  0.7648  1.7916
H       -1.2796  -0.8589  1.9805
H       1.4729  -0.7334  -1.8365
H       1.2609  0.8936  -1.9440
H       3.5594  0.1856  -1.3144
H       2.8264  1.4611  -0.3607
H       2.8517  -1.4673  0.3830
H       3.6035  -0.1757  1.2966
H       1.3286  -0.8501  2.0305
H       1.5081  0.7729  1.8152
H       -1.5239  -0.7406  -1.8571
