27

Co      0.0370  -0.0031  0.0194
Cl      -0.0030  -2.2608  -0.2123
Cl      -0.0034  2.2629  0.2104
N       -1.4512  0.1598  -1.3475
N       -1.4185  -0.1620  1.3290
N       1.4176  0.1527  -1.3252
N       1.3849  -0.1545  1.3068
C       -2.8003  0.4101  -0.6775
C       -2.7760  -0.3992  0.6591
C       2.7726  0.4091  -0.6780
C       2.7482  -0.3978  0.6596
H       -1.3027  0.8935  -2.0144
H       -2.8343  1.4731  -0.5069
H       -3.6586  0.1252  -1.2671
H       -3.6195  -0.1426  1.2798
H       -2.7961  -1.4615  0.4721
H       -1.5439  0.6697  1.8835
H       -1.2848  -0.9124  1.9833
H       1.5367  -0.6852  -1.8630
H       1.2424  0.8901  -1.9831
H       3.6195  0.1241  -1.2786
H       2.8066  1.4754  -0.5070
H       2.7686  -1.4620  0.4723
H       3.5826  -0.1409  1.2890
H       1.2241  -0.9085  1.9521
H       1.5034  0.6720  1.8634
H       -1.5791  -0.6843  -1.8831
