27

Co      0.0000  -0.0244  -0.0017
Cl      0.0002  -2.2530  -0.2116
Cl      -0.0001  2.2867  0.2150
N       -1.4741  0.1474  -1.3503
N       -1.4741  -0.1425  1.3485
N       1.4741  0.1473  -1.3502
N       1.4741  -0.1420  1.3486
C       -2.7956  0.4052  -0.6160
C       -2.7959  -0.4045  0.6177
C       2.7957  0.4051  -0.6162
C       2.7958  -0.4040  0.6179
H       -1.3034  0.9108  -1.9778
H       -2.8730  1.4570  -0.4051
H       -3.6288  0.1089  -1.2343
H       -3.6288  -0.1045  1.2361
H       -2.8737  -1.4563  0.4102
H       -1.5398  0.7252  1.8488
H       -1.3224  -0.8777  2.0127
H       1.5535  -0.6938  -1.8918
H       1.3036  0.9105  -1.9780
H       3.6288  0.1085  -1.2330
H       2.8746  1.4570  -0.4058
H       2.8754  -1.4559  0.4109
H       3.6287  -0.1036  1.2348
H       1.3223  -0.8769  2.0131
H       1.5395  0.7259  1.8484
H       -1.5535  -0.6935  -1.8922
