27

Co      -0.0370  0.0000  0.0000
Cl      0.0035  -2.2956  -0.2141
Cl      0.0031  2.2957  0.2142
N       -1.5084  0.1529  -1.3469
N       -1.5084  -0.1531  1.3468
N       1.5420  0.1580  -1.3691
N       1.5419  -0.1578  1.3691
C       -2.7667  0.3900  -0.6297
C       -2.7669  -0.3892  0.6296
C       2.7945  0.3909  -0.6294
C       2.7947  -0.3898  0.6295
H       -1.3383  0.9148  -1.9752
H       -2.8433  1.4461  -0.4320
H       -3.6143  0.0963  -1.2291
H       -3.6143  -0.0952  1.2292
H       -2.8439  -1.4439  0.4320
H       -1.5567  0.6923  1.8800
H       -1.3387  -0.9154  1.9748
H       1.6013  -0.6913  -1.8971
H       1.3991  0.9157  -2.0089
H       3.6534  0.0986  -1.2179
H       2.8692  1.4457  -0.4312
H       2.8701  -1.4446  0.4313
H       3.6533  -0.0970  1.2180
H       1.3992  -0.9158  2.0086
H       1.6008  0.6914  1.8975
H       -1.5570  -0.6926  -1.8797
