27

Co      0.0000  -0.0244  -0.0017
Cl      0.0002  -2.2745  -0.2180
Cl      -0.0001  2.3082  0.2214
N       -1.5057  0.1341  -1.3437
N       -1.5057  -0.1291  1.3419
N       1.5058  0.1359  -1.3436
N       1.5057  -0.1305  1.3420
C       -2.7439  0.4079  -0.6078
C       -2.7442  -0.4072  0.6095
C       2.7440  0.4078  -0.6080
C       2.7442  -0.4067  0.6097
H       -1.2973  0.8900  -1.9656
H       -2.8181  1.4553  -0.3617
H       -3.5584  0.1529  -1.2647
H       -3.5607  -0.1484  1.2642
H       -2.8187  -1.4532  0.3667
H       -1.4869  0.7669  1.8002
H       -1.3163  -0.8569  2.0005
H       1.4964  -0.7356  -1.8451
H       1.2975  0.8916  -1.9639
H       3.5584  0.1506  -1.2648
H       2.8201  1.4521  -0.3642
H       2.8209  -1.4510  0.3693
H       3.5583  -0.1457  1.2666
H       1.3162  -0.8580  1.9990
H       1.4825  0.7677  1.8017
H       -1.4983  -0.7353  -1.8436
