27

Co      0.0370  -0.0031  0.0194
Cl      -0.0030  -2.3044  -0.2196
Cl      -0.0034  2.3065  0.2177
N       -1.4468  0.1434  -1.3307
N       -1.4533  -0.1455  1.3491
N       1.4525  0.1381  -1.3452
N       1.3805  -0.1399  1.2900
C       -2.7831  0.4210  -0.6542
C       -2.7834  -0.4174  0.6456
C       2.7800  0.4273  -0.6645
C       2.7310  -0.4086  0.6363
H       -1.2545  0.8726  -1.9866
H       -2.8216  1.4753  -0.4387
H       -3.5974  0.1700  -1.3161
H       -3.6048  -0.1824  1.3069
H       -2.8080  -1.4711  0.4212
H       -1.5151  0.7188  1.8545
H       -1.2856  -0.8817  2.0070
H       1.5037  -0.7343  -1.8359
H       1.2432  0.8612  -2.0050
H       3.6025  0.1621  -1.3079
H       2.8204  1.4831  -0.4579
H       2.7578  -1.4623  0.4060
H       3.5214  -0.1838  1.3380
H       1.1758  -0.8895  1.9224
H       1.4214  0.7137  1.8142
H       -1.4990  -0.7261  -1.8321
