27

Co      0.0000  0.0000  0.0000
Cl      0.0002  -2.2850  -0.2140
Cl      -0.0001  2.2850  0.2141
N       -1.4368  0.1580  -1.3569
N       -1.4368  -0.1582  1.3568
N       1.4368  0.1561  -1.3569
N       1.4368  -0.1558  1.3569
C       -2.7334  0.3929  -0.6491
C       -2.7336  -0.3922  0.6491
C       2.7334  0.3929  -0.6493
C       2.7336  -0.3918  0.6493
H       -1.2626  0.9236  -1.9766
H       -2.8066  1.4495  -0.4581
H       -3.5631  0.1007  -1.2702
H       -3.5631  -0.0996  1.2703
H       -2.8073  -1.4488  0.4581
H       -1.4801  0.6870  1.8961
H       -1.2630  -0.9242  1.9761
H       1.4822  -0.6876  -1.8935
H       1.2628  0.9215  -1.9787
H       3.5631  0.1022  -1.2703
H       2.8049  1.4514  -0.4568
H       2.8057  -1.4503  0.4569
H       3.5630  -0.1006  1.2704
H       1.2629  -0.9215  1.9784
H       1.4817  0.6877  1.8939
H       -1.4804  -0.6873  -1.8958
