27

Co      0.0370  0.0000  0.0000
Cl      -0.0030  -2.2673  -0.2151
Cl      -0.0034  2.2673  0.2152
N       -1.4785  0.1515  -1.3510
N       -1.4785  -0.1517  1.3509
N       1.4450  0.1463  -1.3287
N       1.4449  -0.1460  1.3287
C       -2.7540  0.4018  -0.6667
C       -2.7542  -0.4011  0.6666
C       2.7263  0.4008  -0.6671
C       2.7264  -0.3997  0.6672
H       -1.4177  0.8900  -2.0370
H       -2.7485  1.4638  -0.4690
H       -3.5934  0.1925  -1.3115
H       -3.5911  -0.1914  1.3139
H       -2.7492  -1.4630  0.4690
H       -1.6420  0.6785  1.9021
H       -1.4182  -0.8905  2.0365
H       1.6002  -0.6807  -1.8836
H       1.3573  0.8885  -2.0038
H       3.5542  0.1895  -1.3244
H       2.7213  1.4628  -0.4710
H       2.7222  -1.4617  0.4710
H       3.5542  -0.1879  1.3245
H       1.3575  -0.8885  2.0035
H       1.5997  0.6808  1.8840
H       -1.6446  -0.6789  -1.9018
