27

Co      0.0370  0.0000  0.0000
Cl      -0.0030  -2.3055  -0.2186
Cl      -0.0034  2.3055  0.2187
N       -1.4410  0.1467  -1.3332
N       -1.4410  -0.1468  1.3331
N       1.4075  0.1414  -1.3108
N       1.4074  -0.1411  1.3108
C       -2.7854  0.4173  -0.6589
C       -2.7856  -0.4166  0.6589
C       2.7577  0.4162  -0.6594
C       2.7578  -0.4151  0.6595
H       -1.2970  0.8678  -2.0174
H       -2.7828  1.4774  -0.4593
H       -3.6463  0.1790  -1.2662
H       -3.6440  -0.1779  1.2686
H       -2.7835  -1.4780  0.4593
H       -1.5770  0.7042  1.8547
H       -1.2974  -0.8684  2.0170
H       1.5352  -0.7064  -1.8362
H       1.2366  0.8663  -1.9842
H       3.6072  0.1760  -1.2777
H       2.7570  1.4778  -0.4613
H       2.7579  -1.4767  0.4613
H       3.6071  -0.1744  1.2778
H       1.2367  -0.8664  1.9839
H       1.5347  0.7065  1.8366
H       -1.5795  -0.7045  -1.8544
