27

Co      0.0125  0.0000  0.0000
Cl      0.0002  -2.2833  -0.2177
Cl      -0.0001  2.2833  0.2178
N       -1.4599  0.1484  -1.3457
N       -1.4599  -0.1485  1.3456
N       1.4395  0.1415  -1.2955
N       1.4394  -0.1412  1.2955
C       -2.7224  0.4061  -0.6625
C       -2.7227  -0.4054  0.6625
C       2.7225  0.4083  -0.6581
C       2.7227  -0.4072  0.6582
H       -1.2777  0.8893  -1.9918
H       -2.7436  1.4636  -0.4501
H       -3.5617  0.1759  -1.2969
H       -3.5616  -0.1749  1.2970
H       -2.7442  -1.4629  0.4501
H       -1.4999  0.7137  1.8561
H       -1.2781  -0.8898  1.9913
H       1.4706  -0.7257  -1.7951
H       1.2369  0.8731  -1.9488
H       3.5389  0.1778  -1.3212
H       2.7491  1.4659  -0.4439
H       2.7499  -1.4648  0.4439
H       3.5388  -0.1763  1.3214
H       1.2370  -0.8731  1.9484
H       1.4701  0.7258  1.7955
H       -1.5002  -0.7141  -1.8558
