27

Co      -0.0370  0.0000  0.0000
Cl      0.0035  -2.3152  -0.2168
Cl      0.0031  2.3153  0.2169
N       -1.5219  0.1489  -1.3747
N       -1.4827  -0.1490  1.3378
N       1.5163  0.1540  -1.3601
N       1.5555  -0.1537  1.3970
C       -2.7589  0.3959  -0.6255
C       -2.7345  -0.3878  0.6157
C       2.7622  0.3895  -0.6155
C       2.7869  -0.3957  0.6254
H       -1.3197  0.9163  -1.9833
H       -2.8658  1.4452  -0.4103
H       -3.5752  0.0943  -1.2627
H       -3.5332  -0.0981  1.2802
H       -2.8419  -1.4357  0.3931
H       -1.4470  0.7094  1.8594
H       -1.2710  -0.9266  1.9313
H       1.4892  -0.7084  -1.8765
H       1.3314  0.9270  -1.9655
H       3.5701  0.1014  -1.2711
H       2.8672  1.4375  -0.3924
H       2.8926  -1.4437  0.4096
H       3.6142  -0.0949  1.2517
H       1.3806  -0.9173  2.0167
H       1.5378  0.7159  1.8990
H       -1.4941  -0.7171  -1.8812
