27

Co      0.0000  0.0000  0.0000
Cl      0.0002  -2.3152  -0.2168
Cl      -0.0001  2.3153  0.2169
N       -1.5234  0.1493  -1.3675
N       -1.5234  -0.1494  1.3674
N       1.5234  0.1492  -1.3674
N       1.5234  -0.1490  1.3674
C       -2.7540  0.4100  -0.6226
C       -2.7542  -0.4093  0.6226
C       2.7541  0.4100  -0.6227
C       2.7542  -0.4089  0.6228
H       -1.2822  0.9110  -1.9700
H       -2.9162  1.4593  -0.4204
H       -3.5445  0.0613  -1.2755
H       -3.5468  -0.0602  1.2734
H       -2.9168  -1.4572  0.4205
H       -1.5563  0.7058  1.8886
H       -1.2826  -0.9115  1.9695
H       1.5543  -0.7064  -1.8879
H       1.2824  0.9107  -1.9702
H       3.5445  0.0609  -1.2756
H       2.9163  1.4579  -0.4211
H       2.9171  -1.4568  0.4211
H       3.5445  -0.0594  1.2758
H       1.2826  -0.9108  1.9699
H       1.5538  0.7065  1.8882
H       -1.5543  -0.7061  -1.8883
