27

Co      -0.0370  0.0000  0.0000
Cl      0.0035  -2.2699  -0.2132
Cl      0.0031  2.2699  0.2133
N       -1.4716  0.1466  -1.3326
N       -1.4716  -0.1467  1.3325
N       1.5052  0.1517  -1.3548
N       1.5051  -0.1514  1.3548
C       -2.7703  0.4047  -0.6399
C       -2.7705  -0.4040  0.6399
C       2.7981  0.4056  -0.6397
C       2.7983  -0.4045  0.6398
H       -1.2838  0.8962  -1.9702
H       -2.8258  1.4594  -0.4312
H       -3.5978  0.1360  -1.2751
H       -3.5978  -0.1349  1.2753
H       -2.8264  -1.4587  0.4312
H       -1.5201  0.7071  1.8526
H       -1.2842  -0.8967  1.9697
H       1.5647  -0.7061  -1.8697
H       1.3446  0.8971  -2.0039
H       3.6369  0.1382  -1.2639
H       2.8518  1.4604  -0.4305
H       2.8526  -1.4593  0.4305
H       3.6368  -0.1366  1.2641
H       1.3448  -0.8972  2.0035
H       1.5641  0.7062  1.8701
H       -1.5204  -0.7075  -1.8523
