27

Co      -0.0370  0.0000  0.0000
Cl      0.0035  -2.2930  -0.2159
Cl      0.0031  2.2931  0.2160
N       -1.4672  0.1472  -1.3640
N       -1.4672  -0.1473  1.3639
N       1.5008  0.1523  -1.3862
N       1.5008  -0.1520  1.3862
C       -2.7501  0.4035  -0.6423
C       -2.7503  -0.4028  0.6423
C       2.7779  0.4044  -0.6421
C       2.7781  -0.4033  0.6422
H       -1.2821  0.9031  -1.9932
H       -2.7960  1.4582  -0.4327
H       -3.5925  0.1410  -1.2602
H       -3.5925  -0.1399  1.2603
H       -2.7967  -1.4575  0.4327
H       -1.5181  0.7026  1.8902
H       -1.2826  -0.9036  1.9927
H       1.5627  -0.7016  -1.9073
H       1.3429  0.9040  -2.0269
H       3.6316  0.1433  -1.2490
H       2.8220  1.4592  -0.4320
H       2.8228  -1.4581  0.4320
H       3.6316  -0.1417  1.2492
H       1.3431  -0.9041  2.0265
H       1.5622  0.7017  1.9077
H       -1.5184  -0.7030  -1.8899
