27

Co      0.0000  0.0244  0.0017
Cl      0.0002  -2.3008  -0.2138
Cl      -0.0001  2.2672  0.2106
N       -1.4483  0.1550  -1.3187
N       -1.4483  -0.1602  1.3203
N       1.4483  0.1531  -1.3187
N       1.4482  -0.1578  1.3204
C       -2.7706  0.3908  -0.6427
C       -2.7709  -0.3901  0.6410
C       2.7707  0.3908  -0.6429
C       2.7709  -0.3897  0.6413
H       -1.3582  0.9082  -1.9766
H       -2.8667  1.4450  -0.4519
H       -3.5327  0.0993  -1.3565
H       -3.5327  -0.1016  1.3550
H       -2.8674  -1.4443  0.4469
H       -1.5346  0.6599  1.8979
H       -1.3401  -0.9424  1.9407
H       1.5232  -0.6925  -1.8515
H       1.3584  0.9060  -1.9787
H       3.5327  0.1008  -1.3567
H       2.8649  1.4469  -0.4507
H       2.8658  -1.4458  0.4457
H       3.5326  -0.1026  1.3551
H       1.3401  -0.9397  1.9430
H       1.5362  0.6607  1.8957
H       -1.5214  -0.6923  -1.8538
