27

Co      0.0000  0.0000  0.0000
Cl      0.0002  -2.3072  -0.2148
Cl      -0.0001  2.3072  0.2149
N       -1.4349  0.1604  -1.3442
N       -1.4348  -0.1605  1.3441
N       1.4349  0.1585  -1.3441
N       1.4348  -0.1582  1.3441
C       -2.7527  0.3874  -0.6533
C       -2.7529  -0.3867  0.6533
C       2.7528  0.3873  -0.6535
C       2.7529  -0.3862  0.6535
H       -1.3744  0.9229  -2.0022
H       -2.8053  1.4483  -0.4803
H       -3.5726  0.1083  -1.2955
H       -3.5704  -0.1072  1.2979
H       -2.8060  -1.4476  0.4803
H       -1.5960  0.6533  1.9250
H       -1.3749  -0.9234  2.0018
H       1.6003  -0.6540  -1.9224
H       1.3746  0.9207  -2.0043
H       3.5726  0.1098  -1.2957
H       2.8035  1.4502  -0.4791
H       2.8044  -1.4491  0.4791
H       3.5726  -0.1082  1.2958
H       1.3748  -0.9208  2.0040
H       1.5998  0.6541  1.9228
H       -1.5985  -0.6537  -1.9247
