27

Co      0.0370  0.0213  0.0211
Cl      -0.0030  -2.3194  -0.2175
Cl      -0.0034  2.2878  0.2122
N       -1.4609  0.1591  -1.3176
N       -1.4675  -0.1663  1.3376
N       1.4667  0.1520  -1.3321
N       1.3946  -0.1588  1.2785
C       -2.7553  0.3928  -0.6697
C       -2.7555  -0.3892  0.6594
C       2.7521  0.3991  -0.6800
C       2.7032  -0.3804  0.6502
H       -1.3586  0.9047  -1.9769
H       -2.8311  1.4508  -0.4821
H       -3.5211  0.1266  -1.3881
H       -3.5284  -0.1423  1.3772
H       -2.8174  -1.4452  0.4594
H       -1.5455  0.6555  1.9116
H       -1.3712  -0.9475  1.9620
H       1.5226  -0.7030  -1.8474
H       1.3473  0.8915  -1.9971
H       3.5261  0.1205  -1.3814
H       2.8266  1.4591  -0.4993
H       2.7640  -1.4383  0.4424
H       3.4451  -0.1456  1.4097
H       1.2614  -0.9534  1.8792
H       1.4537  0.6504  1.8695
H       -1.5159  -0.6948  -1.8454
