27

Co      -0.0370  0.0000  0.0000
Cl      0.0035  -2.3135  -0.2205
Cl      0.0031  2.3136  0.2206
N       -1.4962  0.1316  -1.3190
N       -1.4962  -0.1317  1.3189
N       1.5298  0.1386  -1.3412
N       1.5297  -0.1383  1.3412
C       -2.7429  0.4215  -0.6201
C       -2.7431  -0.4208  0.6200
C       2.7707  0.4225  -0.6198
C       2.7709  -0.4214  0.6199
H       -1.2722  0.8562  -1.9757
H       -2.8462  1.4758  -0.4163
H       -3.5688  0.1086  -1.2397
H       -3.5688  -0.1075  1.2399
H       -2.8469  -1.4737  0.4163
H       -1.6136  0.7238  1.8283
H       -1.2726  -0.8567  1.9753
H       1.6562  -0.7228  -1.8473
H       1.3330  0.8590  -2.0075
H       3.6079  0.1090  -1.2285
H       2.8741  1.4735  -0.4174
H       2.8749  -1.4724  0.4175
H       3.6078  -0.1074  1.2287
H       1.3331  -0.8590  2.0072
H       1.6557  0.7229  1.8476
H       -1.6138  -0.7241  -1.8280
