27

Co      0.0000  0.0244  0.0017
Cl      0.0002  -2.2822  -0.2130
Cl      -0.0001  2.2486  0.2097
N       -1.4429  0.1595  -1.3466
N       -1.4429  -0.1647  1.3482
N       1.4429  0.1576  -1.3466
N       1.4429  -0.1624  1.3483
C       -2.7534  0.3906  -0.6590
C       -2.7537  -0.3899  0.6573
C       2.7535  0.3906  -0.6591
C       2.7537  -0.3895  0.6575
H       -1.3150  0.9004  -2.0119
H       -2.7964  1.4540  -0.4909
H       -3.6244  0.0986  -1.2276
H       -3.6221  -0.1009  1.2283
H       -2.7970  -1.4533  0.4858
H       -1.5721  0.6502  1.9275
H       -1.2969  -0.9346  1.9761
H       1.5630  -0.6828  -1.8812
H       1.3152  0.8983  -2.0141
H       3.6243  0.1001  -1.2277
H       2.7946  1.4559  -0.4896
H       2.7954  -1.4548  0.4846
H       3.6243  -0.1019  1.2262
H       1.2969  -0.9320  1.9784
H       1.5759  0.6509  1.9253
H       -1.5611  -0.6826  -1.8834
