27

Co      0.0370  0.0244  0.0017
Cl      -0.0030  -2.3063  -0.2176
Cl      -0.0034  2.2727  0.2143
N       -1.4563  0.1460  -1.3467
N       -1.4956  -0.1512  1.3851
N       1.4620  0.1408  -1.3612
N       1.4227  -0.1455  1.3261
C       -2.7863  0.4147  -0.6482
C       -2.8111  -0.4213  0.6563
C       2.7831  0.4210  -0.6585
C       2.7587  -0.4125  0.6471
H       -1.2849  0.8772  -2.0066
H       -2.8152  1.4680  -0.4271
H       -3.6058  0.1772  -1.3107
H       -3.6500  -0.1746  1.2895
H       -2.8404  -1.4760  0.4393
H       -1.5665  0.7001  1.9105
H       -1.3159  -0.9016  2.0224
H       1.5089  -0.7343  -1.8482
H       1.2736  0.8658  -2.0250
H       3.6109  0.1693  -1.3025
H       2.8140  1.4757  -0.4463
H       2.7903  -1.4673  0.4241
H       3.5666  -0.1760  1.3206
H       1.2062  -0.9094  1.9378
H       1.4728  0.6950  1.8702
H       -1.5042  -0.7251  -1.8443
