27

Co      0.0000  0.0000  0.0000
Cl      0.0002  -2.3055  -0.2186
Cl      -0.0001  2.3055  0.2187
N       -1.4616  0.1475  -1.3146
N       -1.4616  -0.1476  1.3145
N       1.4617  0.1474  -1.3146
N       1.4616  -0.1471  1.3146
C       -2.7395  0.4064  -0.6603
C       -2.7397  -0.4057  0.6602
C       2.7396  0.4063  -0.6604
C       2.7397  -0.4052  0.6605
H       -1.2691  0.8847  -1.9633
H       -2.7700  1.4639  -0.4493
H       -3.5631  0.1703  -1.3134
H       -3.5631  -0.1692  1.3135
H       -2.7707  -1.4632  0.4493
H       -1.4945  0.7160  1.8212
H       -1.2696  -0.8853  1.9629
H       1.4948  -0.7166  -1.8204
H       1.2693  0.8844  -1.9636
H       3.5631  0.1699  -1.3150
H       2.7687  1.4639  -0.4499
H       2.7695  -1.4628  0.4499
H       3.5630  -0.1683  1.3151
H       1.2695  -0.8845  1.9632
H       1.4943  0.7167  1.8208
H       -1.4948  -0.7163  -1.8208
