27

Co      0.0000  0.0244  0.0017
Cl      0.0002  -2.3063  -0.2176
Cl      -0.0001  2.2727  0.2143
N       -1.4642  0.1471  -1.3388
N       -1.4642  -0.1523  1.3404
N       1.4642  0.1470  -1.3387
N       1.4642  -0.1518  1.3404
C       -2.7686  0.4029  -0.6497
C       -2.7689  -0.4022  0.6479
C       2.7687  0.4029  -0.6498
C       2.7689  -0.4018  0.6482
H       -1.3345  0.8683  -2.0276
H       -2.7857  1.4644  -0.4616
H       -3.6465  0.1405  -1.2233
H       -3.6442  -0.1428  1.2240
H       -2.7863  -1.4637  0.4565
H       -1.6039  0.6749  1.8970
H       -1.3164  -0.9025  1.9918
H       1.5930  -0.7075  -1.8525
H       1.3347  0.8680  -2.0278
H       3.6465  0.1401  -1.2235
H       2.7858  1.4644  -0.4622
H       2.7866  -1.4633  0.4572
H       3.6464  -0.1419  1.2219
H       1.3163  -0.9017  1.9921
H       1.6059  0.6756  1.8967
H       -1.5930  -0.7072  -1.8529
