27

Co      0.0370  0.0000  0.0000
Cl      -0.0030  -2.3090  -0.2186
Cl      -0.0034  2.3091  0.2187
N       -1.4462  0.1505  -1.3350
N       -1.4855  -0.1506  1.3717
N       1.4519  0.1452  -1.3495
N       1.4126  -0.1449  1.3127
C       -2.7524  0.3997  -0.6437
C       -2.7772  -0.4064  0.6535
C       2.7493  0.4061  -0.6540
C       2.7249  -0.3976  0.6443
H       -1.3149  0.8879  -2.0035
H       -2.7650  1.4612  -0.4489
H       -3.6280  0.1486  -1.2248
H       -3.6699  -0.1426  1.2076
H       -2.7902  -1.4679  0.4661
H       -1.6288  0.6965  1.8974
H       -1.3645  -0.8787  2.0546
H       1.5870  -0.6987  -1.8789
H       1.3036  0.8766  -2.0219
H       3.6330  0.1407  -1.2167
H       2.7638  1.4676  -0.4681
H       2.7400  -1.4591  0.4509
H       3.5888  -0.1441  1.2365
H       1.2547  -0.8865  1.9700
H       1.5374  0.6914  1.8572
H       -1.5822  -0.6895  -1.8750
