27

Co      0.0000  -0.0244  -0.0017
Cl      0.0002  -2.2566  -0.2116
Cl      -0.0001  2.2903  0.2150
N       -1.4849  0.1498  -1.3790
N       -1.4849  -0.1449  1.3772
N       1.4849  0.1497  -1.3789
N       1.4848  -0.1444  1.3773
C       -2.7932  0.4040  -0.6184
C       -2.7935  -0.4033  0.6201
C       2.7933  0.4039  -0.6186
C       2.7935  -0.4028  0.6203
H       -1.3178  0.9203  -1.9981
H       -2.8647  1.4558  -0.4075
H       -3.6396  0.1113  -1.2211
H       -3.6395  -0.1069  1.2230
H       -2.8653  -1.4551  0.4126
H       -1.5530  0.7180  1.8846
H       -1.3367  -0.8872  2.0330
H       1.5667  -0.6866  -1.9277
H       1.3180  0.9200  -1.9984
H       3.6395  0.1109  -1.2199
H       2.8662  1.4558  -0.4082
H       2.8670  -1.4547  0.4133
H       3.6395  -0.1060  1.2217
H       1.3366  -0.8864  2.0334
H       1.5527  0.7187  1.8843
H       -1.5667  -0.6864  -1.9281
