27

Co      0.0125  0.0000  0.0000
Cl      0.0002  -2.3055  -0.2186
Cl      -0.0001  2.3055  0.2187
N       -1.4314  0.1643  -1.3314
N       -1.4707  -0.1644  1.3681
N       1.4502  0.1574  -1.3181
N       1.4109  -0.1571  1.2813
C       -2.7429  0.3887  -0.6348
C       -2.7677  -0.3953  0.6446
C       2.7676  0.3983  -0.6402
C       2.7432  -0.3898  0.6304
H       -1.3334  0.8724  -2.0385
H       -2.7611  1.4434  -0.4084
H       -3.5830  0.1584  -1.2711
H       -3.6272  -0.1523  1.2516
H       -2.7863  -1.4500  0.4256
H       -1.4644  0.7499  1.7987
H       -1.3829  -0.8631  2.0895
H       1.4351  -0.7619  -1.7377
H       1.3417  0.8463  -2.0448
H       3.6044  0.1575  -1.2743
H       2.7926  1.4530  -0.4194
H       2.7689  -1.4446  0.4022
H       3.5602  -0.1609  1.2941
H       1.2906  -0.8562  1.9929
H       1.3855  0.7546  1.7159
H       -1.4156  -0.7429  -1.7763
