27

Co      0.0000  0.0000  0.0000
Cl      0.0002  -2.2814  -0.2140
Cl      -0.0001  2.2814  0.2141
N       -1.4260  0.1556  -1.3282
N       -1.4260  -0.1558  1.3281
N       1.4260  0.1537  -1.3281
N       1.4260  -0.1534  1.3282
C       -2.7357  0.3941  -0.6467
C       -2.7360  -0.3934  0.6467
C       2.7358  0.3941  -0.6469
C       2.7360  -0.3930  0.6469
H       -1.2482  0.9141  -1.9563
H       -2.8150  1.4507  -0.4557
H       -3.5524  0.0983  -1.2833
H       -3.5523  -0.0972  1.2835
H       -2.8157  -1.4500  0.4557
H       -1.4670  0.6941  1.8602
H       -1.2487  -0.9146  1.9558
H       1.4691  -0.6948  -1.8576
H       1.2484  0.9119  -1.9584
H       3.5523  0.0998  -1.2834
H       2.8132  1.4526  -0.4544
H       2.8141  -1.4515  0.4545
H       3.5523  -0.0983  1.2836
H       1.2486  -0.9120  1.9580
H       1.4686  0.6949  1.8580
H       -1.4672  -0.6945  -1.8599
