27

Co      0.0370  -0.0031  0.0194
Cl      -0.0030  -2.2830  -0.2132
Cl      -0.0034  2.2851  0.2112
N       -1.4435  0.1624  -1.3232
N       -1.4501  -0.1646  1.3415
N       1.4492  0.1553  -1.3376
N       1.3772  -0.1570  1.2824
C       -2.8051  0.4056  -0.6726
C       -2.8053  -0.4020  0.6640
C       2.8019  0.4119  -0.6829
C       2.7530  -0.3932  0.6547
H       -1.2901  0.9018  -1.9818
H       -2.8451  1.4686  -0.5008
H       -3.6493  0.1209  -1.2821
H       -3.6544  -0.1333  1.2751
H       -2.8314  -1.4643  0.4833
H       -1.5778  0.6699  1.8902
H       -1.3213  -0.9109  2.0022
H       1.5706  -0.6854  -1.8698
H       1.2788  0.8886  -2.0021
H       3.6544  0.1148  -1.2739
H       2.8420  1.4782  -0.5181
H       2.7794  -1.4575  0.4662
H       3.5733  -0.1366  1.3039
H       1.2115  -0.9169  1.9195
H       1.4883  0.6649  1.8481
H       -1.5640  -0.6772  -1.8678
