27

Co      0.0000  0.0000  0.0000
Cl      0.0002  -2.2876  -0.2122
Cl      -0.0001  2.2876  0.2123
N       -1.4408  0.1632  -1.3499
N       -1.4408  -0.1633  1.3498
N       1.4408  0.1613  -1.3499
N       1.4407  -0.1610  1.3499
C       -2.7888  0.4025  -0.6709
C       -2.7890  -0.4018  0.6708
C       2.7889  0.4024  -0.6710
C       2.7890  -0.4013  0.6711
H       -1.2896  0.9150  -1.9959
H       -2.8166  1.4644  -0.4951
H       -3.6442  0.1287  -1.2699
H       -3.6419  -0.1276  1.2723
H       -2.8172  -1.4651  0.4951
H       -1.5606  0.6670  1.9056
H       -1.2900  -0.9156  1.9954
H       1.5650  -0.6676  -1.9030
H       1.2897  0.9129  -1.9980
H       3.6442  0.1302  -1.2700
H       2.8148  1.4677  -0.4939
H       2.8157  -1.4666  0.4939
H       3.6441  -0.1286  1.2701
H       1.2899  -0.9129  1.9977
H       1.5645  0.6677  1.9034
H       -1.5632  -0.6674  -1.9053
