27

Co      0.0000  0.0000  0.0000
Cl      0.0002  -2.3116  -0.2168
Cl      -0.0001  2.3117  0.2169
N       -1.4905  0.1457  -1.3646
N       -1.4513  -0.1458  1.3276
N       1.4513  0.1456  -1.3277
N       1.4905  -0.1453  1.3645
C       -2.8072  0.4080  -0.6218
C       -2.7828  -0.3999  0.6120
C       2.7827  0.4006  -0.6121
C       2.8074  -0.4069  0.6220
H       -1.3331  0.8898  -2.0171
H       -2.8870  1.4598  -0.4179
H       -3.6477  0.1006  -1.2287
H       -3.6034  -0.1044  1.2484
H       -2.8631  -1.4518  0.4008
H       -1.5163  0.7047  1.8571
H       -1.2845  -0.9001  1.9651
H       1.5165  -0.7054  -1.8564
H       1.2842  0.8993  -1.9658
H       3.6034  0.1052  -1.2470
H       2.8640  1.4525  -0.4014
H       2.8894  -1.4588  0.4186
H       3.6476  -0.0987  1.2275
H       1.3335  -0.8895  2.0170
H       1.5651  0.7128  1.8789
H       -1.5656  -0.7125  -1.8789
