27

Co      -0.0370  0.0031  -0.0194
Cl      0.0035  -2.2905  -0.2149
Cl      0.0031  2.2885  0.2170
N       -1.4477  0.1260  -1.3458
N       -1.4411  -0.1241  1.3272
N       1.4420  0.1311  -1.3312
N       1.5139  -0.1288  1.3864
C       -2.7661  0.3988  -0.6106
C       -2.7664  -0.4010  0.6191
C       2.7694  0.3924  -0.6005
C       2.8187  -0.4089  0.6288
H       -1.2551  0.9281  -1.9255
H       -2.8094  1.4496  -0.3920
H       -3.6057  0.1353  -1.2321
H       -3.5983  -0.1207  1.2417
H       -2.8244  -1.4538  0.4096
H       -1.5121  0.6895  1.9161
H       -1.2249  -0.9201  1.9041
H       1.5240  -0.6753  -1.9332
H       1.2668  0.9389  -1.9098
H       3.6006  0.1402  -1.2391
H       2.8123  1.4433  -0.3741
H       2.8765  -1.4618  0.4261
H       3.6816  -0.1153  1.2094
H       1.3367  -0.9107  1.9917
H       1.6053  0.6961  1.9557
H       -1.5288  -0.6830  -1.9378
