27

Co      0.0370  0.0000  0.0000
Cl      -0.0030  -2.2814  -0.2140
Cl      -0.0034  2.2814  0.2141
N       -1.4289  0.1581  -1.3326
N       -1.4289  -0.1582  1.3325
N       1.3954  0.1509  -1.3102
N       1.3953  -0.1506  1.3102
C       -2.7519  0.3899  -0.6508
C       -2.7521  -0.3892  0.6507
C       2.7242  0.3889  -0.6512
C       2.7243  -0.3878  0.6513
H       -1.3784  0.9105  -2.0055
H       -2.8036  1.4508  -0.4747
H       -3.5686  0.1140  -1.2979
H       -3.5663  -0.1129  1.3003
H       -2.8042  -1.4501  0.4747
H       -1.5956  0.6631  1.9028
H       -1.3788  -0.9110  2.0050
H       1.5556  -0.6653  -1.8824
H       1.3180  0.9071  -1.9741
H       3.5295  0.1129  -1.3094
H       2.7759  1.4517  -0.4748
H       2.7768  -1.4506  0.4748
H       3.5294  -0.1113  1.3095
H       1.3182  -0.9072  1.9738
H       1.5551  0.6654  1.8828
H       -1.5981  -0.6635  -1.9025
