27

Co      0.0370  0.0213  0.0211
Cl      -0.0030  -2.3213  -0.2213
Cl      -0.0034  2.2897  0.2160
N       -1.4470  0.1421  -1.3147
N       -1.4535  -0.1493  1.3347
N       1.4527  0.1368  -1.3291
N       1.3806  -0.1436  1.2756
C       -2.7671  0.4036  -0.6465
C       -2.7673  -0.4000  0.6362
C       2.7639  0.4099  -0.6568
C       2.7150  -0.3913  0.6270
H       -1.3918  0.8572  -2.0283
H       -2.8000  1.4637  -0.4567
H       -3.5871  0.1475  -1.2992
H       -3.5922  -0.1633  1.2905
H       -2.7864  -1.4581  0.4341
H       -1.6424  0.6684  1.9053
H       -1.4044  -0.9000  2.0134
H       1.6198  -0.7158  -1.8430
H       1.3805  0.8458  -2.0467
H       3.5922  0.1396  -1.2910
H       2.7988  1.4701  -0.4759
H       2.7363  -1.4493  0.4189
H       3.5111  -0.1647  1.3194
H       1.2946  -0.9078  1.9288
H       1.5509  0.6633  1.8650
H       -1.6150  -0.7077  -1.8391
