27

Co      -0.0370  0.0000  0.0000
Cl      0.0035  -2.2913  -0.2197
Cl      0.0031  2.2914  0.2198
N       -1.4842  0.1290  -1.3249
N       -1.4842  -0.1292  1.3248
N       1.5178  0.1360  -1.3472
N       1.5178  -0.1358  1.3472
C       -2.7258  0.4224  -0.6201
C       -2.7260  -0.4217  0.6200
C       2.7537  0.4234  -0.6198
C       2.7538  -0.4223  0.6199
H       -1.2602  0.8528  -1.9826
H       -2.8232  1.4766  -0.4137
H       -3.5560  0.1154  -1.2346
H       -3.5560  -0.1143  1.2347
H       -2.8238  -1.4745  0.4137
H       -1.6042  0.7272  1.8325
H       -1.2607  -0.8533  1.9821
H       1.6469  -0.7262  -1.8515
H       1.3210  0.8555  -2.0144
H       3.5951  0.1158  -1.2234
H       2.8510  1.4744  -0.4149
H       2.8519  -1.4733  0.4149
H       3.5950  -0.1142  1.2236
H       1.3212  -0.8556  2.0140
H       1.6463  0.7263  1.8519
H       -1.6044  -0.7275  -1.8322
