27

Co      0.0000  0.0000  0.0000
Cl      0.0002  -2.3171  -0.2205
Cl      -0.0001  2.3172  0.2206
N       -1.5053  0.1373  -1.3673
N       -1.5053  -0.1375  1.3672
N       1.5054  0.1391  -1.3672
N       1.5053  -0.1389  1.3672
C       -2.7792  0.4162  -0.6328
C       -2.7794  -0.4155  0.6328
C       2.7792  0.4162  -0.6329
C       2.7794  -0.4151  0.6330
H       -1.3319  0.8715  -2.0256
H       -2.7983  1.4691  -0.4028
H       -3.6343  0.1842  -1.2503
H       -3.6342  -0.1831  1.2504
H       -2.7989  -1.4683  0.4028
H       -1.5722  0.7265  1.8692
H       -1.3323  -0.8721  2.0251
H       1.5705  -0.7271  -1.8704
H       1.3321  0.8731  -2.0239
H       3.6342  0.1820  -1.2504
H       2.8003  1.4672  -0.4053
H       2.8011  -1.4661  0.4053
H       3.6342  -0.1804  1.2506
H       1.3322  -0.8732  2.0236
H       1.5700  0.7272  1.8708
H       -1.5724  -0.7269  -1.8689
