27

Co      -0.0370  0.0000  0.0000
Cl      0.0035  -2.2734  -0.2132
Cl      0.0031  2.2735  0.2133
N       -1.5251  0.1481  -1.3780
N       -1.4859  -0.1482  1.3411
N       1.5195  0.1532  -1.3634
N       1.5587  -0.1529  1.4003
C       -2.7596  0.3967  -0.6255
C       -2.7353  -0.3887  0.6157
C       2.7629  0.3903  -0.6155
C       2.7876  -0.3966  0.6254
H       -1.3237  0.9155  -1.9875
H       -2.8641  1.4461  -0.4086
H       -3.5784  0.0984  -1.2593
H       -3.5364  -0.1022  1.2769
H       -2.8403  -1.4366  0.3914
H       -1.4527  0.7101  1.8619
H       -1.2751  -0.9259  1.9355
H       1.4950  -0.7092  -1.8790
H       1.3354  0.9263  -1.9696
H       3.5733  0.1056  -1.2678
H       2.8656  1.4383  -0.3907
H       2.8910  -1.4446  0.4079
H       3.6174  -0.0991  1.2483
H       1.3847  -0.9165  2.0208
H       1.5436  0.7166  1.9015
H       -1.4998  -0.7178  -1.8837
