27

Co      0.0000  0.0031  -0.0194
Cl      0.0002  -2.3163  -0.2157
Cl      -0.0001  2.3143  0.2179
N       -1.5131  0.1535  -1.3851
N       -1.5066  -0.1516  1.3666
N       1.4739  0.1534  -1.3482
N       1.5458  -0.1511  1.4035
C       -2.7788  0.4064  -0.6337
C       -2.7790  -0.4085  0.6422
C       2.7543  0.3990  -0.6240
C       2.8035  -0.4155  0.6523
H       -1.2399  0.9156  -1.9811
H       -2.8492  1.4557  -0.4061
H       -3.6319  0.1279  -1.2347
H       -3.6267  -0.1133  1.2420
H       -2.8642  -1.4599  0.4237
H       -1.4350  0.7321  1.8513
H       -1.2096  -0.9076  1.9597
H       1.4003  -0.7194  -1.8506
H       1.1910  0.9251  -1.9297
H       3.5876  0.1324  -1.2545
H       2.8248  1.4484  -0.3896
H       2.8890  -1.4669  0.4416
H       3.6686  -0.1075  1.2248
H       1.2586  -0.8970  2.0116
H       1.4816  0.7402  1.8730
H       -1.4494  -0.7255  -1.8731
