27

Co      0.0125  0.0244  0.0017
Cl      0.0002  -2.3259  -0.2203
Cl      -0.0001  2.2923  0.2170
N       -1.4491  0.1506  -1.3424
N       -1.4884  -0.1558  1.3808
N       1.4679  0.1437  -1.3290
N       1.4286  -0.1485  1.2939
C       -2.7271  0.3957  -0.6651
C       -2.7519  -0.4023  0.6732
C       2.7517  0.4053  -0.6704
C       2.7273  -0.3968  0.6590
H       -1.3885  0.8862  -2.0297
H       -2.7216  1.4576  -0.4687
H       -3.5599  0.1867  -1.3198
H       -3.6018  -0.1840  1.3008
H       -2.7468  -1.4642  0.4808
H       -1.6602  0.6606  1.9538
H       -1.4196  -0.9106  2.0454
H       1.6197  -0.7046  -1.8490
H       1.3969  0.8601  -2.0382
H       3.5812  0.1837  -1.3245
H       2.7516  1.4672  -0.4797
H       2.7279  -1.4588  0.4575
H       3.5370  -0.1903  1.3426
H       1.3294  -0.9037  1.9510
H       1.5835  0.6653  1.8711
H       -1.6002  -0.6856  -1.8876
