27

Co      0.0000  0.0000  0.0000
Cl      0.0002  -2.2894  -0.2159
Cl      -0.0001  2.2895  0.2160
N       -1.4594  0.1472  -1.3396
N       -1.4594  -0.1473  1.3395
N       1.4594  0.1471  -1.3395
N       1.4593  -0.1469  1.3396
C       -2.7686  0.4005  -0.6440
C       -2.7689  -0.3998  0.6439
C       2.7687  0.4004  -0.6441
C       2.7689  -0.3993  0.6442
H       -1.3980  0.8899  -2.0220
H       -2.7930  1.4595  -0.4494
H       -3.5980  0.1543  -1.2879
H       -3.5958  -0.1532  1.2903
H       -2.7936  -1.4588  0.4494
H       -1.6336  0.6788  1.8970
H       -1.3984  -0.8905  2.0216
H       1.6361  -0.6794  -1.8963
H       1.3981  0.8896  -2.0223
H       3.5980  0.1539  -1.2881
H       2.7931  1.4596  -0.4500
H       2.7939  -1.4585  0.4500
H       3.5980  -0.1524  1.2882
H       1.3983  -0.8897  2.0219
H       1.6356  0.6795  1.8966
H       -1.6361  -0.6791  -1.8966
