27

Co      0.0000  0.0244  0.0017
Cl      0.0002  -2.3037  -0.2194
Cl      -0.0001  2.2701  0.2161
N       -1.4444  0.1601  -1.3461
N       -1.4444  -0.1653  1.3477
N       1.4444  0.1601  -1.3461
N       1.4443  -0.1648  1.3478
C       -2.7201  0.4058  -0.6699
C       -2.7203  -0.4051  0.6682
C       2.7202  0.4057  -0.6700
C       2.7203  -0.4046  0.6684
H       -1.4072  0.8367  -2.1070
H       -2.7363  1.4677  -0.4779
H       -3.5489  0.1723  -1.3184
H       -3.5466  -0.1745  1.3191
H       -2.7370  -1.4670  0.4729
H       -1.6004  0.6926  1.8521
H       -1.3891  -0.8709  2.0712
H       1.5895  -0.7252  -1.8077
H       1.4074  0.8364  -2.1051
H       3.5489  0.1741  -1.3200
H       2.7350  1.4677  -0.4786
H       2.7359  -1.4666  0.4736
H       3.5488  -0.1759  1.3185
H       1.3868  -0.8701  2.0694
H       1.6024  0.6933  1.8518
H       -1.5895  -0.7249  -1.8081
