27

Co      0.0000  0.0000  0.0000
Cl      0.0002  -2.2833  -0.2177
Cl      -0.0001  2.2833  0.2178
N       -1.4150  0.1581  -1.3240
N       -1.4150  -0.1583  1.3239
N       1.4150  0.1581  -1.3239
N       1.4149  -0.1578  1.3239
C       -2.7404  0.3897  -0.6416
C       -2.7406  -0.3890  0.6416
C       2.7405  0.3896  -0.6417
C       2.7406  -0.3885  0.6418
H       -1.4254  0.8519  -2.0819
H       -2.7294  1.4487  -0.4307
H       -3.5777  0.1782  -1.2878
H       -3.5754  -0.1772  1.2902
H       -2.7300  -1.4480  0.4307
H       -1.5222  0.7251  1.7943
H       -1.4258  -0.8524  2.0815
H       1.5247  -0.7257  -1.7936
H       1.4256  0.8516  -2.0799
H       3.5776  0.1801  -1.2879
H       2.7295  1.4488  -0.4313
H       2.7303  -1.4477  0.4314
H       3.5776  -0.1785  1.2881
H       1.4235  -0.8517  2.0796
H       1.5242  0.7258  1.7940
H       -1.5247  -0.7254  -1.7940
