27

Co      0.0000  0.0000  0.0000
Cl      0.0002  -2.2868  -0.2177
Cl      -0.0001  2.2869  0.2178
N       -1.4323  0.1429  -1.3483
N       -1.4323  -0.1430  1.3482
N       1.4323  0.1428  -1.3482
N       1.4322  -0.1425  1.3482
C       -2.7337  0.4013  -0.6440
C       -2.7340  -0.4006  0.6439
C       2.7338  0.4013  -0.6441
C       2.7340  -0.4002  0.6442
H       -1.3700  0.8838  -2.0315
H       -2.7485  1.4604  -0.4459
H       -3.5692  0.1638  -1.2810
H       -3.5669  -0.1627  1.2834
H       -2.7492  -1.4597  0.4459
H       -1.6090  0.6849  1.9030
H       -1.3704  -0.8844  2.0311
H       1.6115  -0.6855  -1.9023
H       1.3702  0.8835  -2.0318
H       3.5692  0.1634  -1.2812
H       2.7486  1.4604  -0.4465
H       2.7495  -1.4593  0.4466
H       3.5691  -0.1619  1.2813
H       1.3703  -0.8836  2.0314
H       1.6110  0.6856  1.9027
H       -1.6116  -0.6852  -1.9027
