27

Co      0.0000  0.0000  0.0000
Cl      0.0002  -2.2673  -0.2151
Cl      -0.0001  2.2673  0.2152
N       -1.4429  0.1456  -1.3608
N       -1.4429  -0.1457  1.3607
N       1.4429  0.1455  -1.3608
N       1.4429  -0.1452  1.3608
C       -2.7741  0.4014  -0.6503
C       -2.7743  -0.4007  0.6503
C       2.7742  0.4014  -0.6504
C       2.7743  -0.4003  0.6505
H       -1.3012  0.8959  -2.0092
H       -2.7418  1.4547  -0.4119
H       -3.6236  0.2187  -1.2919
H       -3.6236  -0.2176  1.2921
H       -2.7424  -1.4554  0.4119
H       -1.4410  0.7231  1.8637
H       -1.3016  -0.8964  2.0087
H       1.4412  -0.7237  -1.8630
H       1.3014  0.8956  -2.0094
H       3.6236  0.2183  -1.2921
H       2.7419  1.4561  -0.4125
H       2.7427  -1.4550  0.4125
H       3.6236  -0.2167  1.2922
H       1.3015  -0.8957  2.0091
H       1.4407  0.7238  1.8634
H       -1.4413  -0.7235  -1.8634
