27

Co      0.0125  -0.0031  0.0194
Cl      0.0002  -2.2608  -0.2123
Cl      -0.0001  2.2629  0.2104
N       -1.4612  0.1775  -1.3642
N       -1.4285  -0.1796  1.3457
N       1.4408  0.1687  -1.3141
N       1.4080  -0.1704  1.2957
C       -2.7701  0.3852  -0.6583
C       -2.7458  -0.3743  0.6399
C       2.7702  0.3875  -0.6538
C       2.7458  -0.3761  0.6355
H       -1.3637  0.8931  -2.0613
H       -2.8248  1.4428  -0.4645
H       -3.6174  0.1021  -1.2622
H       -3.5806  -0.1194  1.2725
H       -2.7866  -1.4298  0.4298
H       -1.4068  0.7117  1.8164
H       -1.3458  -0.9121  2.0301
H       1.4120  -0.7370  -1.7535
H       1.3230  0.8750  -2.0179
H       3.5946  0.1081  -1.2851
H       2.8299  1.4470  -0.4565
H       2.7919  -1.4336  0.4217
H       3.5577  -0.1249  1.2954
H       1.3025  -0.8935  1.9869
H       1.3788  0.7238  1.7538
H       -1.4398  -0.7263  -1.8160
