27

Co      -0.0125  0.0000  0.0000
Cl      0.0002  -2.2975  -0.2178
Cl      -0.0001  2.2976  0.2179
N       -1.5481  0.1337  -1.3647
N       -1.5088  -0.1338  1.3278
N       1.5293  0.1423  -1.3779
N       1.5685  -0.1421  1.4148
C       -2.8005  0.4430  -0.6334
C       -2.7762  -0.4350  0.6236
C       2.7760  0.4333  -0.6282
C       2.8007  -0.4396  0.6381
H       -1.2089  0.8547  -1.9903
H       -2.9094  1.4915  -0.4086
H       -3.6362  0.1291  -1.2420
H       -3.5942  -0.1329  1.2595
H       -2.8855  -1.4834  0.3914
H       -1.5041  0.7496  1.8012
H       -1.1602  -0.8651  1.9382
H       1.5298  -0.7388  -1.8627
H       1.2010  0.8820  -1.9803
H       3.6147  0.1295  -1.2390
H       2.8800  1.4800  -0.4007
H       2.9054  -1.4863  0.4180
H       3.6589  -0.1230  1.2195
H       1.2502  -0.8723  2.0315
H       1.5784  0.7463  1.8851
H       -1.5512  -0.7573  -1.8230
