27

Co      -0.0125  -0.0213  -0.0211
Cl      0.0002  -2.2736  -0.2132
Cl      -0.0001  2.3053  0.2187
N       -1.4557  0.1453  -1.3198
N       -1.4884  -0.1383  1.3364
N       1.4762  0.1520  -1.3698
N       1.5089  -0.1446  1.3865
C       -2.7518  0.4035  -0.6184
C       -2.7766  -0.4130  0.6385
C       2.7519  0.4011  -0.6231
C       2.7766  -0.4103  0.6432
H       -1.2320  0.9212  -1.9146
H       -2.8330  1.4504  -0.3770
H       -3.5263  0.1497  -1.3286
H       -3.5654  -0.1268  1.3179
H       -2.8725  -1.4619  0.4168
H       -1.4519  0.7559  1.7999
H       -1.2694  -0.8697  1.9801
H       1.4602  -0.6999  -1.9033
H       1.2732  0.9369  -1.9581
H       3.5491  0.1470  -1.3059
H       2.8263  1.4481  -0.3844
H       2.8659  -1.4593  0.4243
H       3.5858  -0.1237  1.2975
H       1.3102  -0.8849  2.0238
H       1.4789  0.7452  1.8599
H       -1.4306  -0.7100  -1.8434
