27

Co      0.0000  0.0000  0.0000
Cl      0.0002  -2.2894  -0.2159
Cl      -0.0001  2.2895  0.2160
N       -1.4530  0.1678  -1.3468
N       -1.4530  -0.1679  1.3467
N       1.4531  0.1677  -1.3467
N       1.4530  -0.1674  1.3467
C       -2.7798  0.4003  -0.6796
C       -2.7800  -0.3996  0.6795
C       2.7798  0.4003  -0.6797
C       2.7800  -0.3992  0.6798
H       -1.4410  0.8648  -2.0926
H       -2.7283  1.4608  -0.4637
H       -3.6129  0.2364  -1.3539
H       -3.6106  -0.2353  1.3563
H       -2.7289  -1.4615  0.4637
H       -1.5415  0.7132  1.8198
H       -1.4414  -0.8653  2.0922
H       1.5440  -0.7138  -1.8191
H       1.4412  0.8645  -2.0906
H       3.6128  0.2382  -1.3554
H       2.7269  1.4622  -0.4643
H       2.7278  -1.4611  0.4643
H       3.6128  -0.2366  1.3556
H       1.4391  -0.8645  2.0903
H       1.5435  0.7139  1.8195
H       -1.5440  -0.7135  -1.8195
