27

Co      0.0370  0.0000  0.0000
Cl      -0.0030  -2.2859  -0.2159
Cl      -0.0034  2.2859  0.2160
N       -1.4654  0.1474  -1.3221
N       -1.4654  -0.1475  1.3219
N       1.4318  0.1422  -1.2997
N       1.4318  -0.1419  1.2997
C       -2.7849  0.4022  -0.6414
C       -2.7851  -0.4015  0.6414
C       2.7572  0.4011  -0.6419
C       2.7573  -0.4000  0.6419
H       -1.4139  0.8810  -2.0184
H       -2.8143  1.4612  -0.4463
H       -3.6068  0.1533  -1.2954
H       -3.6045  -0.1522  1.2978
H       -2.8149  -1.4605  0.4463
H       -1.6426  0.6852  1.8706
H       -1.4143  -0.8815  2.0180
H       1.6008  -0.6874  -1.8520
H       1.3535  0.8795  -1.9852
H       3.5677  0.1502  -1.3069
H       2.7885  1.4603  -0.4483
H       2.7893  -1.4592  0.4483
H       3.5676  -0.1487  1.3070
H       1.3536  -0.8795  1.9849
H       1.6003  0.6875  1.8524
H       -1.6451  -0.6855  -1.8702
