27

Co      0.0000  -0.0031  0.0194
Cl      0.0002  -2.3044  -0.2196
Cl      -0.0001  2.3065  0.2177
N       -1.4392  0.1398  -1.3112
N       -1.4458  -0.1419  1.3295
N       1.4785  0.1397  -1.3479
N       1.4065  -0.1414  1.2927
C       -2.7509  0.4054  -0.6368
C       -2.7512  -0.4018  0.6282
C       2.7756  0.4127  -0.6468
C       2.7266  -0.3940  0.6186
H       -1.3251  0.8824  -1.9736
H       -2.8188  1.4587  -0.4255
H       -3.5223  0.1456  -1.3492
H       -3.5297  -0.1580  1.3400
H       -2.8051  -1.4530  0.4079
H       -1.5434  0.7032  1.8626
H       -1.3562  -0.8916  1.9940
H       1.5763  -0.7171  -1.8619
H       1.3744  0.8723  -2.0254
H       3.5665  0.1403  -1.3297
H       2.8434  1.4661  -0.4433
H       2.7809  -1.4453  0.3914
H       3.4854  -0.1620  1.3598
H       1.3070  -0.9006  1.9428
H       1.4940  0.6966  1.8402
H       -1.5273  -0.7105  -1.8402
