27

Co      -0.0232  0.0051  -0.0138
Cl      -1.0753  1.5959  -1.2069
Cl      1.1779  1.4691  1.3851
C       2.7026  -0.7074  -0.8321
C       2.1584  -1.9782  -0.1160
C       -2.5443  -1.3302  -0.4483
C       -2.4382  -1.1513  1.0603
N       1.4833  0.0497  -1.2969
N       1.0456  -1.4655  0.8374
N       -1.1438  -1.2927  -1.0073
N       -1.4482  -0.0710  1.3204
H       2.9137  -2.4926  0.4639
H       1.7190  -2.6861  -0.8037
H       -3.0985  -0.5229  -0.9011
H       -3.0231  -2.2643  -0.7042
H       1.6867  1.0313  -1.3756
H       1.1981  -0.2459  -2.2103
H       -1.8836  0.8337  1.2525
H       -1.0754  -0.1190  2.2498
H       -2.0788  -2.0597  1.5223
H       -3.3912  -0.9165  1.5048
H       0.5216  -2.2346  1.2090
H       1.4898  -1.0116  1.6159
H       3.3891  -0.8962  -1.6485
H       3.1992  -0.0781  -0.1077
H       -0.7586  -2.2177  -1.0137
H       -1.1941  -0.9804  -1.9575
