27

Co      -0.0053  -0.0313  -0.0010
Cl      -1.0999  1.6394  -1.2326
Cl      1.1715  1.4678  1.3780
C       2.7003  -0.7025  -0.8390
C       2.1512  -1.9670  -0.1118
C       -2.5335  -1.3209  -0.4423
C       -2.4396  -1.1522  1.0683
N       1.4846  0.0588  -1.2973
N       1.0349  -1.4642  0.8450
N       -1.1285  -1.2894  -0.9983
N       -1.4521  -0.0703  1.3186
H       2.9043  -2.4834  0.4659
H       1.7075  -2.6736  -0.7994
H       -3.0746  -0.5038  -0.8884
H       -3.0179  -2.2481  -0.7142
H       1.6744  1.0453  -1.3471
H       1.2024  -0.2144  -2.2189
H       -1.8799  0.8330  1.1970
H       -1.1093  -0.0784  2.2619
H       -2.0835  -2.0594  1.5351
H       -3.3955  -0.9150  1.5044
H       0.5065  -2.2372  1.2005
H       1.4746  -1.0231  1.6334
H       3.3739  -0.9082  -1.6594
H       3.2117  -0.0748  -0.1273
H       -0.7603  -2.2206  -1.0373
H       -1.1767  -0.9452  -1.9383
