27

Co      -0.0049  -0.0118  -0.0028
Cl      -1.1060  1.6349  -1.2258
Cl      1.1779  1.4710  1.3819
C       2.7476  -0.7208  -0.8411
C       2.1820  -1.9913  -0.0932
C       -2.5625  -1.3144  -0.4514
C       -2.4540  -1.1985  1.0825
N       1.5143  0.0758  -1.3319
N       1.0596  -1.4824  0.8318
N       -1.1514  -1.3165  -0.9942
N       -1.5153  -0.0364  1.3421
H       2.9060  -2.5674  0.4727
H       1.7218  -2.6489  -0.8201
H       -3.0323  -0.4206  -0.8365
H       -3.1139  -2.1767  -0.8053
H       1.7185  1.0598  -1.3892
H       1.2496  -0.2063  -2.2549
H       -1.9861  0.8414  1.2049
H       -1.1690  -0.0207  2.2872
H       -2.0369  -2.0849  1.5403
H       -3.4164  -1.0181  1.5329
H       0.4980  -2.2444  1.1659
H       1.4791  -1.0515  1.6358
H       3.3727  -0.9802  -1.6810
H       3.3070  -0.0745  -0.1814
H       -0.7761  -2.2486  -0.9812
H       -1.1745  -1.0150  -1.9502
