27

Co      0.0260  0.0284  0.0168
Cl      -1.0917  1.6079  -1.2144
Cl      1.1267  1.3910  1.3219
C       2.6579  -0.7081  -0.8250
C       2.1324  -1.9307  -0.0943
C       -2.5350  -1.2925  -0.4481
C       -2.4073  -1.1644  1.0543
N       1.4963  0.0814  -1.3093
N       1.0737  -1.4956  0.8652
N       -1.1421  -1.3313  -1.0075
N       -1.4813  -0.0368  1.3315
H       2.9261  -2.4470  0.4165
H       1.6850  -2.6274  -0.7907
H       -3.0283  -0.4337  -0.8650
H       -3.0838  -2.1762  -0.7276
H       1.7347  1.0509  -1.4134
H       1.1904  -0.2289  -2.2116
H       -1.9488  0.8454  1.2141
H       -1.1482  -0.0481  2.2743
H       -1.9840  -2.0645  1.4824
H       -3.3693  -1.0056  1.5192
H       0.5240  -2.2845  1.1513
H       1.4975  -1.1148  1.6910
H       3.2995  -0.9979  -1.6432
H       3.2252  -0.0833  -0.1567
H       -0.7937  -2.2678  -0.9802
H       -1.1741  -1.0452  -1.9677
