27

Co      -0.0278  -0.0266  -0.0186
Cl      -1.0851  1.6178  -1.2149
Cl      1.1912  1.4981  1.4027
C       2.6756  -0.7218  -0.8292
C       2.1511  -1.9427  -0.0996
C       -2.5199  -1.3122  -0.4408
C       -2.4278  -1.1546  1.0666
N       1.5023  0.0626  -1.3130
N       1.0481  -1.5007  0.8192
N       -1.1360  -1.3214  -1.0217
N       -1.4744  -0.0504  1.3439
H       2.9348  -2.4309  0.4644
H       1.7434  -2.6632  -0.7926
H       -3.0369  -0.4742  -0.8738
H       -3.0470  -2.2146  -0.7128
H       1.7239  1.0431  -1.3444
H       1.2456  -0.1933  -2.2462
H       -1.9145  0.8466  1.2580
H       -1.1067  -0.0877  2.2762
H       -2.0538  -2.0517  1.5353
H       -3.3986  -0.9504  1.4847
H       0.5327  -2.2960  1.1389
H       1.4519  -1.0666  1.6307
H       3.3174  -1.0033  -1.6456
H       3.2352  -0.0897  -0.1608
H       -0.7684  -2.2543  -1.0291
H       -1.1918  -1.0134  -1.9740
