27

Co      0.0278  0.0279  0.0195
Cl      -1.0702  1.5840  -1.2030
Cl      1.1286  1.4010  1.3293
C       2.6455  -0.6969  -0.8371
C       2.1153  -1.9209  -0.0852
C       -2.5104  -1.3120  -0.4614
C       -2.4000  -1.1372  1.0557
N       1.4594  0.0756  -1.2864
N       1.0113  -1.4545  0.8141
N       -1.1305  -1.3546  -1.0519
N       -1.4466  -0.0340  1.3582
H       2.9344  -2.4162  0.4095
H       1.6564  -2.6284  -0.7603
H       -2.9739  -0.4639  -0.9357
H       -3.1189  -2.1918  -0.6413
H       1.7241  1.0333  -1.4684
H       1.2250  -0.2900  -2.1957
H       -1.9312  0.8460  1.3016
H       -1.1455  -0.0967  2.3119
H       -2.0004  -2.0205  1.5354
H       -3.3877  -0.9741  1.4603
H       0.4612  -2.2457  1.0952
H       1.4875  -1.1571  1.6557
H       3.3223  -1.0370  -1.6077
H       3.1793  -0.0281  -0.1811
H       -0.8533  -2.3172  -1.0806
H       -1.2152  -1.0669  -2.0106
