27

Co      0.0000  -0.0032  0.0017
Cl      -1.0929  1.6090  -1.2140
Cl      1.1602  1.4393  1.3590
C       2.7184  -0.7079  -0.8383
C       2.1663  -1.9821  -0.0830
C       -2.5597  -1.3210  -0.4577
C       -2.4309  -1.1729  1.0730
N       1.4909  0.0995  -1.3152
N       1.0712  -1.4776  0.8668
N       -1.1607  -1.3067  -1.0297
N       -1.4812  -0.0225  1.3329
H       2.9049  -2.5622  0.4528
H       1.6844  -2.6357  -0.8018
H       -3.0609  -0.4525  -0.8543
H       -3.0967  -2.2027  -0.7720
H       1.6999  1.0818  -1.3659
H       1.2150  -0.1749  -2.2379
H       -1.9449  0.8629  1.2208
H       -1.1240  -0.0287  2.2702
H       -2.0205  -2.0590  1.5367
H       -3.3894  -0.9791  1.5293
H       0.5185  -2.2377  1.2171
H       1.5055  -1.0356  1.6572
H       3.3322  -0.9685  -1.6892
H       3.2914  -0.0685  -0.1845
H       -0.7869  -2.2368  -1.0537
H       -1.2004  -0.9682  -1.9726
