27

Co      -0.0012  -0.0015  0.0042
Cl      -1.0958  1.6175  -1.2225
Cl      1.1659  1.4506  1.3649
C       2.7267  -0.7160  -0.8346
C       2.1785  -1.9929  -0.0869
C       -2.5740  -1.3419  -0.4562
C       -2.4521  -1.1741  1.0709
N       1.4854  0.0812  -1.2969
N       1.0677  -1.4648  0.8362
N       -1.1638  -1.2827  -1.0023
N       -1.4627  -0.0518  1.3130
H       2.9072  -2.5613  0.4784
H       1.7148  -2.6593  -0.8044
H       -3.1033  -0.4988  -0.8691
H       -3.0691  -2.2501  -0.7682
H       1.6935  1.0633  -1.3599
H       1.2044  -0.2002  -2.2157
H       -1.9113  0.8432  1.2162
H       -1.1008  -0.0710  2.2488
H       -2.0789  -2.0681  1.5518
H       -3.4023  -0.9322  1.5235
H       0.5094  -2.2175  1.1953
H       1.5015  -1.0173  1.6249
H       3.3384  -0.9604  -1.6927
H       3.2970  -0.0777  -0.1769
H       -0.7702  -2.2049  -1.0245
H       -1.2008  -0.9466  -1.9460
