27

Co      -0.0039  0.0204  0.0142
Cl      -1.0875  1.6110  -1.2167
Cl      1.1563  1.4342  1.3567
C       2.6729  -0.7125  -0.8256
C       2.1386  -1.9337  -0.1010
C       -2.5338  -1.3202  -0.4558
C       -2.4039  -1.1424  1.0486
N       1.5082  0.0697  -1.3207
N       1.0789  -1.5050  0.8657
N       -1.1653  -1.3726  -1.0703
N       -1.4653  -0.0314  1.3604
H       2.9283  -2.4646  0.4057
H       1.6837  -2.6169  -0.8034
H       -3.0458  -0.4816  -0.8943
H       -3.0954  -2.2145  -0.6807
H       1.7406  1.0403  -1.4261
H       1.2114  -0.2468  -2.2235
H       -1.9162  0.8647  1.3095
H       -1.1000  -0.1068  2.2906
H       -2.0073  -2.0404  1.4995
H       -3.3727  -0.9658  1.4866
H       0.5452  -2.3009  1.1565
H       1.5026  -1.1139  1.6868
H       3.3228  -1.0041  -1.6356
H       3.2332  -0.0827  -0.1549
H       -0.8214  -2.3122  -1.0864
H       -1.2212  -1.0509  -2.0167
