27

Co      -0.0237  0.0076  -0.0164
Cl      -1.0766  1.5989  -1.2064
Cl      1.1827  1.4809  1.3911
C       2.7145  -0.7133  -0.8346
C       2.1749  -1.9960  -0.0864
C       -2.5453  -1.3331  -0.4605
C       -2.4388  -1.1705  1.0719
N       1.4794  0.0803  -1.3246
N       1.0397  -1.5014  0.8290
N       -1.1445  -1.3253  -1.0196
N       -1.4657  -0.0409  1.3502
H       2.9140  -2.5436  0.4867
H       1.7372  -2.6731  -0.8068
H       -3.0413  -0.4691  -0.8736
H       -3.0832  -2.2165  -0.7712
H       1.6901  1.0607  -1.3935
H       1.2094  -0.2094  -2.2446
H       -1.9190  0.8538  1.3001
H       -1.0742  -0.0986  2.2734
H       -2.0628  -2.0618  1.5522
H       -3.4011  -0.9495  1.5047
H       0.4784  -2.2664  1.1519
H       1.4492  -1.0746  1.6411
H       3.3429  -0.9579  -1.6764
H       3.2655  -0.0631  -0.1720
H       -0.7529  -2.2490  -0.9965
H       -1.1801  -1.0360  -1.9788
