27

Co      0.0017  -0.0061  0.0017
Cl      -1.0729  1.5932  -1.2073
Cl      1.1386  1.4129  1.3433
C       2.5947  -0.6993  -0.8051
C       2.0812  -1.8691  -0.1097
C       -2.4798  -1.2924  -0.4322
C       -2.3928  -1.1150  1.0468
N       1.4951  0.0609  -1.3094
N       1.0670  -1.4815  0.8606
N       -1.1155  -1.3029  -1.0388
N       -1.4481  -0.0522  1.3445
H       2.9176  -2.3399  0.3806
H       1.6520  -2.5948  -0.7842
H       -3.0405  -0.5016  -0.8976
H       -2.9800  -2.2287  -0.6327
H       1.7345  1.0300  -1.3902
H       1.2135  -0.2369  -2.2231
H       -1.8752  0.8541  1.2646
H       -1.1008  -0.1097  2.2781
H       -2.0300  -2.0254  1.5024
H       -3.3712  -0.9201  1.4563
H       0.5779  -2.2969  1.1705
H       1.4946  -1.0695  1.6683
H       3.2761  -1.0123  -1.5812
H       3.1402  -0.0866  -0.1144
H       -0.7723  -2.2395  -1.0837
H       -1.1934  -0.9611  -1.9778
