27

Co      0.0249  0.0037  0.0131
Cl      -1.0910  1.6241  -1.2243
Cl      1.1505  1.4354  1.3585
C       2.6212  -0.7117  -0.8104
C       2.0948  -1.8758  -0.1200
C       -2.4932  -1.2989  -0.4326
C       -2.4112  -1.1338  1.0518
N       1.5113  0.0351  -1.3140
N       1.0544  -1.4789  0.8239
N       -1.1381  -1.3864  -1.0660
N       -1.4917  -0.0531  1.3862
H       2.9135  -2.3459  0.3997
H       1.6819  -2.6011  -0.8032
H       -3.0025  -0.4714  -0.8877
H       -3.0617  -2.1966  -0.6331
H       1.7521  0.9994  -1.4564
H       1.2007  -0.3101  -2.2038
H       -1.9263  0.8453  1.2905
H       -1.1689  -0.1114  2.3324
H       -2.0400  -2.0415  1.5030
H       -3.4019  -0.9678  1.4435
H       0.5176  -2.2891  1.0731
H       1.4623  -1.1221  1.6693
H       3.3058  -1.0221  -1.5823
H       3.1619  -0.0924  -0.1182
H       -0.8307  -2.3383  -1.1122
H       -1.2191  -1.0520  -2.0077
