27

Co      0.0021  0.0144  -0.0013
Cl      -1.0677  1.5815  -1.2004
Cl      1.1369  1.4127  1.3419
C       2.6459  -0.6973  -0.8306
C       2.1102  -1.9140  -0.0892
C       -2.4851  -1.2944  -0.4455
C       -2.4072  -1.1416  1.0655
N       1.4977  0.0903  -1.3491
N       1.0334  -1.5034  0.8643
N       -1.1081  -1.3268  -1.0406
N       -1.4783  -0.0272  1.3868
H       2.9042  -2.4226  0.4281
H       1.6734  -2.6131  -0.7867
H       -2.9876  -0.4474  -0.8752
H       -3.0336  -2.1829  -0.7094
H       1.7274  1.0612  -1.4327
H       1.2156  -0.2129  -2.2623
H       -1.9288  0.8664  1.3177
H       -1.1177  -0.0874  2.3171
H       -2.0226  -2.0386  1.5283
H       -3.3929  -0.9675  1.4703
H       0.4881  -2.3027  1.1283
H       1.4370  -1.1271  1.7034
H       3.3000  -1.0089  -1.6295
H       3.2027  -0.0619  -0.1661
H       -0.7541  -2.2608  -1.0540
H       -1.1657  -1.0077  -1.9885
