27

Co      -0.0112  -0.0072  0.0017
Cl      -1.1058  1.6484  -1.2317
Cl      1.1792  1.4789  1.3866
C       2.6751  -0.7207  -0.8115
C       2.1487  -1.9425  -0.1133
C       -2.5515  -1.3082  -0.4420
C       -2.4187  -1.1702  1.0469
N       1.5214  0.0560  -1.3441
N       1.0842  -1.5400  0.8626
N       -1.1570  -1.3515  -0.9909
N       -1.4703  -0.0625  1.3124
H       2.8986  -2.4632  0.4657
H       1.7527  -2.6417  -0.8396
H       -3.0876  -0.4626  -0.8348
H       -3.0417  -2.2118  -0.7789
H       1.7105  1.0427  -1.3716
H       1.1600  -0.2083  -2.2408
H       -1.8838  0.8450  1.1976
H       -1.0717  -0.0822  2.2320
H       -2.0363  -2.0918  1.4622
H       -3.3543  -0.9527  1.5366
H       0.5338  -2.3321  1.1321
H       1.4288  -1.0816  1.6914
H       3.2960  -0.9494  -1.6649
H       3.2525  -0.1243  -0.1253
H       -0.7356  -2.2627  -0.9254
H       -1.1469  -1.0594  -1.9490
