27

Co      -0.0246  -0.0146  -0.0182
Cl      -1.0889  1.6187  -1.2160
Cl      1.1685  1.4564  1.3739
C       2.6460  -0.7073  -0.8152
C       2.1398  -1.9464  -0.0939
C       -2.5222  -1.3039  -0.4436
C       -2.4099  -1.1502  1.0587
N       1.4902  0.0877  -1.3199
N       1.0928  -1.5384  0.8940
N       -1.1299  -1.2882  -1.0030
N       -1.4517  -0.0469  1.3138
H       2.9566  -2.4596  0.3918
H       1.6887  -2.6401  -0.7886
H       -3.0552  -0.4744  -0.8767
H       -3.0249  -2.2174  -0.7189
H       1.7191  1.0676  -1.3353
H       1.2446  -0.1580  -2.2595
H       -1.8986  0.8501  1.2376
H       -1.0707  -0.0825  2.2390
H       -2.0202  -2.0502  1.5120
H       -3.3698  -0.9484  1.5069
H       0.6132  -2.3432  1.2487
H       1.5262  -1.0815  1.6784
H       3.3047  -0.9844  -1.6229
H       3.1941  -0.0801  -0.1358
H       -0.7477  -2.2141  -0.9817
H       -1.1730  -0.9983  -1.9611
