27

Co      -0.0143  -0.0298  0.0038
Cl      -1.1125  1.6496  -1.2323
Cl      1.1843  1.4842  1.3893
C       2.7130  -0.7262  -0.8242
C       2.1647  -1.9558  -0.0818
C       -2.5667  -1.3177  -0.4540
C       -2.4352  -1.1911  1.0681
N       1.5247  0.0842  -1.3479
N       1.0849  -1.5147  0.8391
N       -1.1618  -1.3142  -0.9877
N       -1.4881  -0.0361  1.3102
H       2.9197  -2.5368  0.4335
H       1.7065  -2.6018  -0.8220
H       -3.0461  -0.4319  -0.8412
H       -3.1131  -2.1869  -0.7980
H       1.7447  1.0665  -1.3792
H       1.2879  -0.1805  -2.2826
H       -1.9533  0.8457  1.1897
H       -1.1292  -0.0310  2.2488
H       -2.0185  -2.0762  1.5297
H       -3.3900  -0.9989  1.5309
H       0.5530  -2.3019  1.1557
H       1.4912  -1.0860  1.6526
H       3.3124  -1.0671  -1.6558
H       3.3181  -0.0781  -0.2062
H       -0.7813  -2.2440  -0.9597
H       -1.1748  -1.0241  -1.9475
