27

Co      -0.0290  -0.0289  -0.0161
Cl      -1.0952  1.6238  -1.2139
Cl      1.1981  1.5003  1.4056
C       2.7366  -0.7186  -0.8292
C       2.1834  -1.9992  -0.0984
C       -2.5681  -1.3170  -0.4570
C       -2.4344  -1.1873  1.0725
N       1.4872  0.0670  -1.3017
N       1.0619  -1.4671  0.8159
N       -1.1568  -1.3058  -0.9941
N       -1.4778  -0.0374  1.3031
H       2.9042  -2.5707  0.4806
H       1.7289  -2.6624  -0.8235
H       -3.0552  -0.4370  -0.8486
H       -3.1039  -2.1929  -0.7977
H       1.6825  1.0560  -1.3389
H       1.2339  -0.1988  -2.2326
H       -1.9416  0.8463  1.1764
H       -1.1139  -0.0199  2.2408
H       -2.0183  -2.0747  1.5279
H       -3.3819  -0.9888  1.5450
H       0.5271  -2.2214  1.2067
H       1.4939  -0.9868  1.5887
H       3.3626  -0.9463  -1.6784
H       3.2855  -0.0746  -0.1584
H       -0.7717  -2.2346  -0.9666
H       -1.1776  -1.0172  -1.9544
