27

Co      0.0154  -0.0046  0.0304
Cl      -1.0957  1.6301  -1.2283
Cl      1.1287  1.3967  1.3294
C       2.6199  -0.6995  -0.8021
C       2.0796  -1.8641  -0.1241
C       -2.4912  -1.2862  -0.4387
C       -2.3847  -1.1255  1.0392
N       1.5123  0.0391  -1.3159
N       1.0733  -1.4657  0.8528
N       -1.1219  -1.3397  -1.0309
N       -1.4551  -0.0511  1.3405
H       2.8946  -2.3729  0.3590
H       1.6299  -2.5608  -0.8161
H       -3.0198  -0.4725  -0.8961
H       -3.0240  -2.2017  -0.6447
H       1.7399  1.0072  -1.4467
H       1.2135  -0.3040  -2.2101
H       -1.8911  0.8485  1.2317
H       -1.1344  -0.0876  2.2862
H       -1.9961  -2.0376  1.4724
H       -3.3568  -0.9566  1.4716
H       0.5691  -2.2780  1.1480
H       1.5101  -1.0814  1.6688
H       3.3132  -1.0129  -1.5686
H       3.1541  -0.0843  -0.1038
H       -0.8008  -2.2852  -1.0564
H       -1.1761  -1.0107  -1.9739
