27

Co      0.0053  0.0328  -0.0005
Cl      -1.0769  1.5845  -1.1985
Cl      1.1429  1.4108  1.3430
C       2.6589  -0.7071  -0.8232
C       2.1298  -1.9318  -0.0963
C       -2.5259  -1.2943  -0.4494
C       -2.4037  -1.1581  1.0569
N       1.5050  0.0843  -1.3302
N       1.0812  -1.5088  0.8800
N       -1.1488  -1.3473  -1.0445
N       -1.4937  -0.0218  1.3600
H       2.9301  -2.4577  0.3974
H       1.6722  -2.6170  -0.7953
H       -3.0194  -0.4335  -0.8660
H       -3.0919  -2.1719  -0.7136
H       1.7465  1.0536  -1.4277
H       1.2151  -0.2254  -2.2376
H       -1.9647  0.8611  1.2772
H       -1.1367  -0.0629  2.2929
H       -1.9756  -2.0528  1.4891
H       -3.3765  -1.0162  1.5049
H       0.5482  -2.3029  1.1783
H       1.5064  -1.1108  1.6957
H       3.3157  -0.9986  -1.6280
H       3.2130  -0.0779  -0.1478
H       -0.8004  -2.2852  -1.0279
H       -1.1977  -1.0554  -2.0020
