27

Co      0.0071  0.0326  0.0012
Cl      -1.0724  1.5858  -1.2017
Cl      1.1364  1.4003  1.3410
C       2.6147  -0.6994  -0.7802
C       2.0893  -1.8980  -0.1006
C       -2.5020  -1.3048  -0.4496
C       -2.4016  -1.1433  1.0510
N       1.4939  0.0657  -1.3475
N       1.1038  -1.5030  0.8699
N       -1.1342  -1.3374  -1.0478
N       -1.4731  -0.0314  1.3708
H       2.9016  -2.4604  0.3376
H       1.6145  -2.5416  -0.8289
H       -3.0110  -0.4586  -0.8748
H       -3.0559  -2.1922  -0.7012
H       1.7427  1.0277  -1.4982
H       1.2191  -0.2993  -2.2420
H       -1.9279  0.8645  1.3326
H       -1.0992  -0.1173  2.2946
H       -2.0148  -2.0414  1.5131
H       -3.3849  -0.9690  1.4635
H       0.5842  -2.3003  1.1767
H       1.5343  -1.0988  1.6788
H       3.2890  -1.0320  -1.5549
H       3.1612  -0.0627  -0.1102
H       -0.7778  -2.2705  -1.0379
H       -1.1922  -1.0404  -2.0020
