27

Co      0.0032  0.0210  -0.0004
Cl      -1.0818  1.6107  -1.2149
Cl      1.1521  1.4340  1.3578
C       2.6403  -0.7011  -0.8063
C       2.1261  -1.9430  -0.1028
C       -2.5207  -1.3161  -0.4527
C       -2.4094  -1.1460  1.0505
N       1.4692  0.0625  -1.3120
N       1.0643  -1.5102  0.8559
N       -1.1331  -1.3425  -1.0217
N       -1.4430  -0.0550  1.3395
H       2.9223  -2.4598  0.4081
H       1.6860  -2.6334  -0.8077
H       -3.0332  -0.4802  -0.8950
H       -3.0557  -2.2172  -0.7046
H       1.6978  1.0328  -1.4333
H       1.1755  -0.2685  -2.2119
H       -1.8860  0.8463  1.2899
H       -1.0714  -0.1254  2.2665
H       -2.0389  -2.0521  1.5083
H       -3.3733  -0.9369  1.4859
H       0.5283  -2.2988  1.1597
H       1.4897  -1.1116  1.6724
H       3.3129  -0.9579  -1.6088
H       3.1674  -0.0673  -0.1144
H       -0.7708  -2.2737  -0.9913
H       -1.1761  -1.0641  -1.9831
