27

Co      -0.0253  -0.0160  -0.0254
Cl      -1.0745  1.5895  -1.1984
Cl      1.1743  1.4654  1.3855
C       2.6624  -0.7075  -0.8093
C       2.1212  -1.9243  -0.1085
C       -2.5204  -1.2946  -0.4313
C       -2.4258  -1.1615  1.0630
N       1.5234  0.0747  -1.3670
N       1.0768  -1.5097  0.8771
N       -1.1300  -1.2768  -0.9934
N       -1.4881  -0.0492  1.3303
H       2.8697  -2.4567  0.4588
H       1.7067  -2.6144  -0.8310
H       -3.0894  -0.4651  -0.8168
H       -2.9698  -2.2149  -0.7840
H       1.7096  1.0642  -1.3561
H       1.1940  -0.1666  -2.2817
H       -1.9010  0.8588  1.2101
H       -1.0793  -0.0612  2.2442
H       -2.0509  -2.0777  1.4954
H       -3.3767  -0.9447  1.5228
H       0.5512  -2.2959  1.1977
H       1.4322  -1.0002  1.6729
H       3.2963  -0.9460  -1.6495
H       3.2290  -0.1110  -0.1174
H       -0.6879  -2.1799  -0.9748
H       -1.1458  -0.9422  -1.9369
