27

Co      -0.0044  -0.0192  0.0029
Cl      -1.0979  1.6217  -1.2247
Cl      1.1680  1.4559  1.3691
C       2.6998  -0.7282  -0.8320
C       2.1556  -1.9378  -0.1019
C       -2.5486  -1.3200  -0.4346
C       -2.4522  -1.1655  1.0683
N       1.5221  0.0580  -1.2973
N       1.0714  -1.4558  0.8153
N       -1.1516  -1.2688  -0.9924
N       -1.4871  -0.0650  1.3177
H       2.9216  -2.4487  0.4634
H       1.7256  -2.6475  -0.7939
H       -3.0988  -0.5020  -0.8656
H       -3.0265  -2.2473  -0.7180
H       1.7457  1.0375  -1.3412
H       1.2517  -0.2052  -2.2238
H       -1.9280  0.8296  1.1897
H       -1.1499  -0.0683  2.2626
H       -2.0800  -2.0663  1.5367
H       -3.4146  -0.9459  1.5017
H       0.5491  -2.2370  1.1612
H       1.4960  -1.0112  1.6099
H       3.3295  -1.0159  -1.6591
H       3.2759  -0.1062  -0.1676
H       -0.7747  -2.1973  -1.0360
H       -1.2060  -0.9221  -1.9321
