27

Co      0.0049  0.0118  0.0028
Cl      -1.0708  1.5890  -1.2052
Cl      1.1365  1.4076  1.3391
C       2.5841  -0.7004  -0.8009
C       2.0875  -1.8786  -0.1076
C       -2.4924  -1.3008  -0.4375
C       -2.3864  -1.1118  1.0384
N       1.4825  0.0630  -1.2956
N       1.0797  -1.4963  0.8701
N       -1.1303  -1.3188  -1.0472
N       -1.4333  -0.0543  1.3350
H       2.9356  -2.3420  0.3732
H       1.6594  -2.6085  -0.7789
H       -3.0574  -0.5153  -0.9092
H       -2.9958  -2.2404  -0.6211
H       1.7314  1.0290  -1.3913
H       1.1881  -0.2422  -2.2030
H       -1.8614  0.8541  1.2794
H       -1.0755  -0.1308  2.2633
H       -2.0236  -2.0243  1.4897
H       -3.3585  -0.9117  1.4605
H       0.5885  -2.3116  1.1768
H       1.5105  -1.0896  1.6789
H       3.2635  -1.0017  -1.5833
H       3.1307  -0.0898  -0.1080
H       -0.7860  -2.2543  -1.0753
H       -1.2071  -0.9928  -1.9916
