27

Co      -0.0341  -0.0124  -0.0004
Cl      -1.1032  1.6366  -1.2268
Cl      1.1824  1.4701  1.3830
C       2.6956  -0.7264  -0.8135
C       2.1652  -1.9573  -0.1121
C       -2.5656  -1.3203  -0.4481
C       -2.4215  -1.1628  1.0481
N       1.5160  0.0508  -1.2975
N       1.1161  -1.4985  0.8540
N       -1.1662  -1.2897  -0.9878
N       -1.4519  -0.0624  1.2797
H       2.9501  -2.4958  0.4013
H       1.7084  -2.6393  -0.8155
H       -3.1124  -0.5004  -0.8842
H       -3.0522  -2.2463  -0.7175
H       1.7392  1.0321  -1.3408
H       1.2620  -0.2164  -2.2263
H       -1.9013  0.8333  1.1922
H       -1.0815  -0.0853  2.2113
H       -2.0213  -2.0662  1.4891
H       -3.3636  -0.9545  1.5294
H       0.6401  -2.2908  1.2457
H       1.5664  -1.0206  1.6185
H       3.3518  -0.9880  -1.6290
H       3.2432  -0.1032  -0.1267
H       -0.7792  -2.2158  -0.9597
H       -1.1947  -1.0031  -1.9468
