27

Co      0.0000  0.0000  0.0000
Cl      0.0002  -2.2734  -0.2132
Cl      -0.0001  2.2735  0.2133
N       -1.5223  0.1507  -1.3708
N       -1.5223  -0.1508  1.3707
N       1.5223  0.1506  -1.3707
N       1.5223  -0.1503  1.3707
C       -2.7612  0.3936  -0.6204
C       -2.7615  -0.3929  0.6204
C       2.7613  0.3935  -0.6206
C       2.7614  -0.3924  0.6206
H       -1.3295  0.9210  -1.9784
H       -2.8648  1.4429  -0.3993
H       -3.5759  0.1022  -1.2635
H       -3.5781  -0.1011  1.2614
H       -2.8655  -1.4408  0.3993
H       -1.4994  0.7130  1.8824
H       -1.3299  -0.9216  1.9780
H       1.4974  -0.7136  -1.8817
H       1.3297  0.9207  -1.9787
H       3.5758  0.1018  -1.2636
H       2.8649  1.4415  -0.4000
H       2.8658  -1.4404  0.4000
H       3.5758  -0.1002  1.2638
H       1.3298  -0.9208  1.9783
H       1.4969  0.7137  1.8821
H       -1.4974  -0.7134  -1.8821
