27

Co      0.0000  0.0000  0.0000
Cl      0.0002  -2.2920  -0.2141
Cl      -0.0001  2.2921  0.2142
N       -1.5026  0.1362  -1.3333
N       -1.5026  -0.1364  1.3332
N       1.5026  0.1362  -1.3333
N       1.5025  -0.1359  1.3333
C       -2.8035  0.3999  -0.6376
C       -2.8037  -0.3992  0.6375
C       2.8035  0.3999  -0.6377
C       2.8037  -0.3988  0.6378
H       -1.2995  0.9334  -1.9137
H       -2.8396  1.4546  -0.4265
H       -3.6390  0.1504  -1.2724
H       -3.6390  -0.1493  1.2725
H       -2.8403  -1.4539  0.4265
H       -1.5627  0.6763  1.9220
H       -1.2999  -0.9340  1.9132
H       1.5630  -0.6770  -1.9213
H       1.2997  0.9331  -1.9161
H       3.6390  0.1478  -1.2725
H       2.8397  1.4546  -0.4271
H       2.8406  -1.4535  0.4271
H       3.6389  -0.1462  1.2727
H       1.3021  -0.9332  1.9158
H       1.5624  0.6771  1.9216
H       -1.5630  -0.6767  -1.9216
