27

Co      0.0370  0.0000  0.0000
Cl      -0.0030  -2.3090  -0.2186
Cl      -0.0034  2.3091  0.2187
N       -1.4610  0.1480  -1.3534
N       -1.4610  -0.1482  1.3533
N       1.4275  0.1428  -1.3311
N       1.4274  -0.1425  1.3311
C       -2.7647  0.4010  -0.6438
C       -2.7649  -0.4003  0.6438
C       2.7370  0.4000  -0.6443
C       2.7371  -0.3988  0.6443
H       -1.4122  0.8879  -2.0414
H       -2.7845  1.4600  -0.4478
H       -3.6016  0.1583  -1.2805
H       -3.5993  -0.1572  1.2829
H       -2.7852  -1.4593  0.4478
H       -1.6406  0.6807  1.9082
H       -1.4126  -0.8884  2.0410
H       1.5988  -0.6829  -1.8897
H       1.3518  0.8864  -2.0082
H       3.5624  0.1553  -1.2920
H       2.7588  1.4591  -0.4498
H       2.7596  -1.4580  0.4498
H       3.5624  -0.1537  1.2921
H       1.3520  -0.8864  2.0079
H       1.5983  0.6830  1.8901
H       -1.6431  -0.6810  -1.9079
