27

Co      0.0370  0.0213  0.0211
Cl      -0.0030  -2.2831  -0.2178
Cl      -0.0034  2.2515  0.2124
N       -1.4748  0.1439  -1.3535
N       -1.4814  -0.1511  1.3735
N       1.4805  0.1386  -1.3679
N       1.4085  -0.1454  1.3144
C       -2.7632  0.4080  -0.6447
C       -2.7634  -0.4044  0.6344
C       2.7600  0.4143  -0.6550
C       2.7111  -0.3956  0.6252
H       -1.3103  0.8702  -2.0204
H       -2.8144  1.4637  -0.4377
H       -3.6044  0.1397  -1.2625
H       -3.6117  -0.1554  1.2515
H       -2.8007  -1.4580  0.4151
H       -1.5548  0.6921  1.9105
H       -1.3229  -0.9130  2.0054
H       1.5300  -0.7396  -1.8482
H       1.2990  0.8589  -2.0387
H       3.6094  0.1317  -1.2543
H       2.8132  1.4701  -0.4569
H       2.7506  -1.4493  0.3999
H       3.5284  -0.1568  1.2826
H       1.2132  -0.9208  1.9208
H       1.4611  0.6871  1.8703
H       -1.5252  -0.7314  -1.8443
