27

Co      -0.0245  0.0000  0.0000
Cl      0.0035  -2.2699  -0.2132
Cl      0.0031  2.2699  0.2133
N       -1.4957  0.1501  -1.3644
N       -1.4957  -0.1503  1.3643
N       1.5088  0.1484  -1.3365
N       1.5088  -0.1481  1.3366
C       -2.7680  0.4082  -0.6380
C       -2.7683  -0.4075  0.6380
C       2.7959  0.4115  -0.6332
C       2.7960  -0.4104  0.6333
H       -1.2044  0.9083  -1.9593
H       -2.8467  1.4586  -0.4149
H       -3.6125  0.1204  -1.2435
H       -3.6147  -0.1193  1.2414
H       -2.8474  -1.4578  0.4150
H       -1.4284  0.7316  1.8502
H       -1.2049  -0.9089  1.9589
H       1.4411  -0.7420  -1.8070
H       1.2242  0.8933  -1.9498
H       3.6288  0.1250  -1.2551
H       2.8795  1.4619  -0.4074
H       2.8804  -1.4608  0.4074
H       3.6287  -0.1234  1.2552
H       1.2244  -0.8934  1.9494
H       1.4406  0.7421  1.8073
H       -1.4264  -0.7320  -1.8499
