27

Co      0.0000  0.0000  0.0000
Cl      0.0002  -2.3055  -0.2186
Cl      -0.0001  2.3055  0.2187
N       -1.4177  0.1617  -1.3265
N       -1.4177  -0.1618  1.3264
N       1.4177  0.1616  -1.3264
N       1.4177  -0.1614  1.3264
C       -2.7758  0.4039  -0.6591
C       -2.7760  -0.4032  0.6591
C       2.7759  0.4039  -0.6593
C       2.7760  -0.4028  0.6593
H       -1.3364  0.8448  -2.0714
H       -2.7423  1.4640  -0.4472
H       -3.6460  0.1945  -1.2654
H       -3.6437  -0.1934  1.2678
H       -2.7430  -1.4647  0.4472
H       -1.4811  0.7380  1.7724
H       -1.3369  -0.8454  2.0709
H       1.4836  -0.7386  -1.7717
H       1.3366  0.8445  -2.0694
H       3.6460  0.1963  -1.2656
H       2.7424  1.4654  -0.4478
H       2.7433  -1.4643  0.4479
H       3.6459  -0.1948  1.2657
H       1.3346  -0.8446  2.0691
H       1.4831  0.7387  1.7721
H       -1.4836  -0.7384  -1.7721
