27

Co      0.0000  -0.0031  0.0194
Cl      0.0002  -2.2848  -0.2169
Cl      -0.0001  2.2869  0.2150
N       -1.4788  0.1440  -1.3269
N       -1.4461  -0.1461  1.3084
N       1.4789  0.1439  -1.3268
N       1.4461  -0.1456  1.3084
C       -2.7810  0.4115  -0.6466
C       -2.7567  -0.4005  0.6282
C       2.7811  0.4114  -0.6467
C       2.7567  -0.4001  0.6284
H       -1.2929  0.8754  -1.9846
H       -2.8451  1.4672  -0.4446
H       -3.6090  0.1284  -1.2757
H       -3.5721  -0.1457  1.2861
H       -2.8069  -1.4542  0.4099
H       -1.4976  0.7090  1.8280
H       -1.2750  -0.8943  1.9534
H       1.5306  -0.7229  -1.8272
H       1.2931  0.8751  -1.9848
H       3.6089  0.1280  -1.2759
H       2.8452  1.4672  -0.4453
H       2.8072  -1.4539  0.4106
H       3.5721  -0.1448  1.2862
H       1.2749  -0.8935  1.9538
H       1.4973  0.7097  1.8276
H       -1.5306  -0.7237  -1.8276
