27

Co      -0.0370  0.0031  -0.0194
Cl      0.0035  -2.3127  -0.2157
Cl      0.0031  2.3107  0.2179
N       -1.5040  0.1478  -1.3368
N       -1.4974  -0.1459  1.3183
N       1.4983  0.1529  -1.3222
N       1.5702  -0.1506  1.3775
C       -2.7425  0.4117  -0.6209
C       -2.7427  -0.4138  0.6295
C       2.7458  0.4053  -0.6109
C       2.7951  -0.4218  0.6392
H       -1.1802  0.9002  -1.9312
H       -2.8972  1.4624  -0.4196
H       -3.5664  0.0522  -1.2241
H       -3.5613  -0.0376  1.2314
H       -2.9121  -1.4652  0.4372
H       -1.4764  0.7293  1.8103
H       -1.1499  -0.8922  1.9099
H       1.4860  -0.7151  -1.8274
H       1.1919  0.9110  -1.9134
H       3.5613  0.0594  -1.2326
H       2.8986  1.4547  -0.4017
H       2.9628  -1.4732  0.4537
H       3.6422  -0.0345  1.2029
H       1.2595  -0.8828  1.9952
H       1.5673  0.7358  1.8499
H       -1.4908  -0.7227  -1.8321
