27

Co      0.0370  0.0000  0.0000
Cl      -0.0030  -2.2637  -0.2151
Cl      -0.0034  2.2637  0.2152
N       -1.4442  0.1459  -1.3365
N       -1.4442  -0.1460  1.3364
N       1.4107  0.1406  -1.3141
N       1.4106  -0.1403  1.3141
C       -2.7861  0.4181  -0.6589
C       -2.7864  -0.4174  0.6589
C       2.7584  0.4171  -0.6594
C       2.7586  -0.4160  0.6595
H       -1.3010  0.8671  -2.0216
H       -2.7811  1.4782  -0.4577
H       -3.6496  0.1832  -1.2629
H       -3.6473  -0.1821  1.2653
H       -2.7818  -1.4789  0.4577
H       -1.5827  0.7049  1.8572
H       -1.3015  -0.8676  2.0211
H       1.5409  -0.7071  -1.8387
H       1.2406  0.8656  -1.9884
H       3.6104  0.1801  -1.2743
H       2.7554  1.4786  -0.4596
H       2.7562  -1.4775  0.4597
H       3.6104  -0.1786  1.2745
H       1.2408  -0.8656  1.9880
H       1.5404  0.7072  1.8391
H       -1.5852  -0.7053  -1.8569
