27

Co      -0.0245  0.0000  0.0000
Cl      0.0035  -2.2734  -0.2132
Cl      0.0031  2.2735  0.2133
N       -1.4926  0.1524  -1.3863
N       -1.4926  -0.1525  1.3862
N       1.5057  0.1507  -1.3585
N       1.5057  -0.1504  1.3585
C       -2.7679  0.4023  -0.6446
C       -2.7681  -0.4016  0.6446
C       2.7958  0.4056  -0.6398
C       2.7959  -0.4045  0.6399
H       -1.3187  0.9137  -2.0121
H       -2.8140  1.4570  -0.4370
H       -3.6199  0.1372  -1.2506
H       -3.6199  -0.1361  1.2507
H       -2.8146  -1.4563  0.4370
H       -1.5481  0.6942  1.9192
H       -1.3191  -0.9143  2.0117
H       1.5630  -0.7047  -1.8760
H       1.3385  0.8987  -2.0026
H       3.6363  0.1417  -1.2622
H       2.8468  1.4603  -0.4295
H       2.8476  -1.4592  0.4295
H       3.6362  -0.1402  1.2623
H       1.3386  -0.8988  2.0022
H       1.5625  0.7048  1.8764
H       -1.5483  -0.6946  -1.9189
