27

Co      0.0370  0.0244  0.0017
Cl      -0.0030  -2.3027  -0.2176
Cl      -0.0034  2.2691  0.2143
N       -1.4457  0.1449  -1.3028
N       -1.4850  -0.1501  1.3412
N       1.4515  0.1396  -1.3173
N       1.4121  -0.1444  1.2821
C       -2.7726  0.3985  -0.6373
C       -2.7974  -0.4052  0.6454
C       2.7695  0.4048  -0.6476
C       2.7451  -0.3964  0.6362
H       -1.3986  0.8691  -2.0103
H       -2.8020  1.4576  -0.4402
H       -3.5847  0.1540  -1.3061
H       -3.6266  -0.1514  1.2872
H       -2.8272  -1.4642  0.4524
H       -1.6739  0.6729  1.9035
H       -1.4296  -0.8934  2.0261
H       1.6186  -0.7070  -1.8412
H       1.3873  0.8577  -2.0287
H       3.5898  0.1461  -1.2979
H       2.8008  1.4639  -0.4594
H       2.7771  -1.4555  0.4372
H       3.5455  -0.1528  1.3160
H       1.3198  -0.9013  1.9414
H       1.5824  0.6678  1.8632
H       -1.6138  -0.6978  -1.8373
