27

Co      -0.0370  0.0000  0.0000
Cl      0.0035  -2.3171  -0.2205
Cl      0.0031  2.3172  0.2206
N       -1.5160  0.1317  -1.3544
N       -1.5160  -0.1319  1.3543
N       1.5496  0.1387  -1.3767
N       1.5495  -0.1384  1.3767
C       -2.7382  0.4226  -0.6134
C       -2.7385  -0.4219  0.6134
C       2.7661  0.4236  -0.6132
C       2.7662  -0.4225  0.6133
H       -1.2594  0.8748  -1.9757
H       -2.8695  1.4701  -0.3893
H       -3.5344  0.1087  -1.2718
H       -3.5366  -0.1076  1.2697
H       -2.8702  -1.4679  0.3893
H       -1.5566  0.7347  1.8529
H       -1.2598  -0.8753  1.9753
H       1.5971  -0.7337  -1.8718
H       1.3202  0.8776  -2.0075
H       3.5734  0.1091  -1.2606
H       2.8974  1.4678  -0.3904
H       2.8982  -1.4667  0.3905
H       3.5734  -0.1075  1.2608
H       1.3203  -0.8776  2.0072
H       1.5965  0.7338  1.8722
H       -1.5546  -0.7350  -1.8525
