27

Co      0.0370  -0.0031  0.0194
Cl      -0.0030  -2.2848  -0.2169
Cl      -0.0034  2.2869  0.2150
N       -1.4760  0.1466  -1.3196
N       -1.4825  -0.1487  1.3379
N       1.4817  0.1413  -1.3341
N       1.4097  -0.1431  1.2789
C       -2.7827  0.4083  -0.6415
C       -2.7829  -0.4047  0.6329
C       2.7795  0.4146  -0.6518
C       2.7305  -0.3959  0.6236
H       -1.2987  0.8809  -1.9755
H       -2.8458  1.4640  -0.4354
H       -3.6064  0.1321  -1.2799
H       -3.6138  -0.1445  1.2706
H       -2.8321  -1.4584  0.4178
H       -1.5443  0.7119  1.8485
H       -1.3298  -0.8900  1.9959
H       1.5330  -0.7274  -1.8299
H       1.2874  0.8695  -1.9939
H       3.6115  0.1242  -1.2717
H       2.8446  1.4704  -0.4545
H       2.7820  -1.4497  0.4026
H       3.5304  -0.1459  1.3017
H       1.2200  -0.8978  1.9113
H       1.4506  0.7068  1.8082
H       -1.5282  -0.7192  -1.8261
