27

Co      0.0370  0.0213  0.0211
Cl      -0.0030  -2.3053  -0.2186
Cl      -0.0034  2.2737  0.2133
N       -1.4729  0.1463  -1.3407
N       -1.4794  -0.1535  1.3607
N       1.4786  0.1410  -1.3552
N       1.4066  -0.1478  1.3016
C       -2.7825  0.4024  -0.6489
C       -2.7828  -0.3988  0.6386
C       2.7793  0.4087  -0.6592
C       2.7304  -0.3901  0.6294
H       -1.4222  0.8694  -2.0460
H       -2.8130  1.4625  -0.4600
H       -3.6139  0.1472  -1.2878
H       -3.6190  -0.1630  1.2791
H       -2.7994  -1.4569  0.4374
H       -1.6707  0.6585  1.9394
H       -1.4348  -0.9122  2.0311
H       1.6481  -0.7060  -1.8771
H       1.4109  0.8581  -2.0643
H       3.6190  0.1393  -1.2796
H       2.8118  1.4689  -0.4792
H       2.7493  -1.4482  0.4222
H       3.5379  -0.1644  1.3080
H       1.3250  -0.9200  1.9464
H       1.5792  0.6534  1.8991
H       -1.6433  -0.6978  -1.8732
