27

Co      0.0370  0.0244  0.0017
Cl      -0.0030  -2.2841  -0.2167
Cl      -0.0034  2.2505  0.2135
N       -1.4353  0.1457  -1.3459
N       -1.4746  -0.1509  1.3843
N       1.4411  0.1405  -1.3604
N       1.4017  -0.1452  1.3253
C       -2.7715  0.4133  -0.6572
C       -2.7963  -0.4199  0.6654
C       2.7683  0.4196  -0.6675
C       2.7439  -0.4111  0.6561
H       -1.3001  0.8647  -2.0338
H       -2.7605  1.4733  -0.4540
H       -3.6382  0.1863  -1.2604
H       -3.6801  -0.1837  1.2415
H       -2.7857  -1.4814  0.4661
H       -1.6272  0.6854  1.9260
H       -1.3311  -0.8891  2.0495
H       1.5719  -0.7196  -1.8637
H       1.2888  0.8534  -2.0522
H       3.6433  0.1784  -1.2522
H       2.7593  1.4811  -0.4731
H       2.7356  -1.4727  0.4509
H       3.5990  -0.1851  1.2703
H       1.2213  -0.8969  1.9649
H       1.5358  0.6804  1.8858
H       -1.5671  -0.7104  -1.8599
