27

Co      0.0245  0.0000  0.0000
Cl      -0.0030  -2.2850  -0.2140
Cl      -0.0034  2.2850  0.2141
N       -1.4294  0.1570  -1.3362
N       -1.4294  -0.1572  1.3361
N       1.4164  0.1567  -1.3640
N       1.4163  -0.1564  1.3640
C       -2.7495  0.3899  -0.6509
C       -2.7497  -0.3892  0.6509
C       2.7218  0.3866  -0.6559
C       2.7219  -0.3855  0.6560
H       -1.3723  0.9121  -2.0042
H       -2.7986  1.4508  -0.4737
H       -3.5680  0.1176  -1.2961
H       -3.5657  -0.1165  1.2985
H       -2.7993  -1.4501  0.4737
H       -1.5939  0.6617  1.9080
H       -1.3727  -0.9126  2.0037
H       1.5836  -0.6525  -1.9479
H       1.3529  0.9246  -2.0161
H       3.5516  0.1142  -1.2848
H       2.7642  1.4494  -0.4806
H       2.7650  -1.4483  0.4806
H       3.5516  -0.1126  1.2850
H       1.3530  -0.9247  2.0157
H       1.5831  0.6526  1.9483
H       -1.5964  -0.6620  -1.9077
