27

Co      0.0000  0.0244  0.0017
Cl      0.0002  -2.3008  -0.2138
Cl      -0.0001  2.2672  0.2106
N       -1.4251  0.1559  -1.3204
N       -1.4251  -0.1611  1.3220
N       1.4252  0.1539  -1.3203
N       1.4251  -0.1587  1.3220
C       -2.7912  0.4012  -0.6645
C       -2.7914  -0.4005  0.6627
C       2.7913  0.4012  -0.6646
C       2.7914  -0.4001  0.6630
H       -1.3572  0.8935  -2.0054
H       -2.8322  1.4608  -0.4856
H       -3.5850  0.1367  -1.3493
H       -3.5827  -0.1390  1.3500
H       -2.8329  -1.4615  0.4805
H       -1.5906  0.6461  1.9134
H       -1.3391  -0.9277  1.9695
H       1.5815  -0.6787  -1.8671
H       1.3574  0.8913  -2.0075
H       3.5849  0.1382  -1.3495
H       2.8305  1.4641  -0.4843
H       2.8313  -1.4630  0.4793
H       3.5849  -0.1400  1.3479
H       1.3390  -0.9251  1.9718
H       1.5945  0.6468  1.9112
H       -1.5796  -0.6784  -1.8693
