27

Co      0.0000  0.0000  0.0000
Cl      0.0002  -2.3152  -0.2168
Cl      -0.0001  2.3153  0.2169
N       -1.5100  0.1537  -1.3607
N       -1.5100  -0.1539  1.3606
N       1.5101  0.1537  -1.3606
N       1.5100  -0.1534  1.3606
C       -2.7627  0.3904  -0.6295
C       -2.7630  -0.3897  0.6295
C       2.7628  0.3904  -0.6296
C       2.7630  -0.3893  0.6297
H       -1.3525  0.9127  -1.9946
H       -2.8348  1.4466  -0.4304
H       -3.6179  0.1003  -1.2216
H       -3.6178  -0.0992  1.2218
H       -2.8355  -1.4444  0.4304
H       -1.5637  0.6942  1.8912
H       -1.3530  -0.9133  1.9942
H       1.5640  -0.6948  -1.8905
H       1.3527  0.9124  -1.9949
H       3.6178  0.0999  -1.2218
H       2.8349  1.4452  -0.4310
H       2.8358  -1.4441  0.4311
H       3.6178  -0.0983  1.2219
H       1.3529  -0.9125  1.9945
H       1.5635  0.6949  1.8909
H       -1.5640  -0.6945  -1.8909
