27

Co      0.0000  -0.0031  0.0194
Cl      0.0002  -2.2858  -0.2187
Cl      -0.0001  2.2879  0.2168
N       -1.4625  0.1420  -1.3642
N       -1.4298  -0.1442  1.3457
N       1.4625  0.1419  -1.3642
N       1.4298  -0.1437  1.3458
C       -2.7438  0.4111  -0.6490
C       -2.7194  -0.4002  0.6305
C       2.7438  0.4111  -0.6491
C       2.7194  -0.3998  0.6308
H       -1.2793  0.8788  -2.0144
H       -2.7923  1.4669  -0.4436
H       -3.5909  0.1402  -1.2557
H       -3.5541  -0.1576  1.2660
H       -2.7541  -1.4539  0.4088
H       -1.4862  0.7079  1.8699
H       -1.2613  -0.8978  1.9833
H       1.5192  -0.7218  -1.8692
H       1.2795  0.8785  -2.0146
H       3.5909  0.1399  -1.2558
H       2.7925  1.4669  -0.4442
H       2.7544  -1.4535  0.4095
H       3.5540  -0.1567  1.2662
H       1.2612  -0.8970  1.9836
H       1.4860  0.7086  1.8696
H       -1.5192  -0.7226  -1.8696
