27

Co      0.0000  -0.0244  -0.0017
Cl      0.0002  -2.2807  -0.2162
Cl      -0.0001  2.3144  0.2196
N       -1.5084  0.1219  -1.3667
N       -1.5084  -0.1169  1.3649
N       1.5084  0.1237  -1.3667
N       1.5084  -0.1183  1.3650
C       -2.8106  0.4118  -0.6069
C       -2.8109  -0.4111  0.6085
C       2.8107  0.4118  -0.6070
C       2.8109  -0.4107  0.6087
H       -1.3107  0.9214  -1.9474
H       -2.8319  1.4618  -0.3716
H       -3.6706  0.1731  -1.2147
H       -3.6706  -0.1687  1.2165
H       -2.8325  -1.4611  0.3767
H       -1.5959  0.7161  1.9183
H       -1.3296  -0.8882  1.9823
H       1.6077  -0.6848  -1.9632
H       1.3109  0.9229  -1.9480
H       3.6706  0.1686  -1.2134
H       2.8353  1.4599  -0.3741
H       2.8361  -1.4588  0.3792
H       3.6705  -0.1637  1.2152
H       1.3317  -0.8893  1.9830
H       1.5938  0.7168  1.9199
H       -1.6096  -0.6845  -1.9618
