27

Co      0.0000  0.0244  0.0017
Cl      0.0002  -2.2786  -0.2130
Cl      -0.0001  2.2450  0.2097
N       -1.4132  0.1533  -1.3264
N       -1.4132  -0.1585  1.3279
N       1.4132  0.1514  -1.3263
N       1.4132  -0.1561  1.3280
C       -2.7741  0.4021  -0.6645
C       -2.7744  -0.4014  0.6627
C       2.7742  0.4021  -0.6646
C       2.7744  -0.4010  0.6630
H       -1.3452  0.8901  -2.0122
H       -2.8092  1.4616  -0.4830
H       -3.5721  0.1436  -1.3442
H       -3.5699  -0.1458  1.3449
H       -2.8098  -1.4623  0.4780
H       -1.5812  0.6495  1.9177
H       -1.3272  -0.9243  1.9764
H       1.5721  -0.6821  -1.8713
H       1.3454  0.8879  -2.0143
H       3.5721  0.1451  -1.3443
H       2.8074  1.4649  -0.4818
H       2.8083  -1.4638  0.4767
H       3.5721  -0.1469  1.3428
H       1.3271  -0.9216  1.9786
H       1.5851  0.6502  1.9155
H       -1.5703  -0.6818  -1.8736
