27

Co      0.0370  0.0000  0.0000
Cl      -0.0030  -2.2673  -0.2151
Cl      -0.0034  2.2673  0.2152
N       -1.4446  0.1473  -1.3383
N       -1.4838  -0.1474  1.3750
N       1.4503  0.1420  -1.3528
N       1.4110  -0.1417  1.3160
C       -2.7532  0.3982  -0.6389
C       -2.7780  -0.4048  0.6487
C       2.7500  0.4045  -0.6492
C       2.7256  -0.3960  0.6394
H       -1.3917  0.8920  -2.0198
H       -2.7706  1.4572  -0.4375
H       -3.5827  0.1649  -1.2870
H       -3.6246  -0.1589  1.2697
H       -2.7958  -1.4639  0.4547
H       -1.6709  0.6851  1.9218
H       -1.4413  -0.8828  2.0709
H       1.6291  -0.6873  -1.9032
H       1.3804  0.8807  -2.0382
H       3.5877  0.1570  -1.2788
H       2.7694  1.4636  -0.4567
H       2.7457  -1.4551  0.4395
H       3.5435  -0.1603  1.2986
H       1.3315  -0.8906  1.9863
H       1.5795  0.6800  1.8815
H       -1.6243  -0.6781  -1.8993
