27

Co      -0.0370  0.0000  0.0000
Cl      0.0035  -2.2920  -0.2141
Cl      0.0031  2.2921  0.2142
N       -1.5171  0.1493  -1.3518
N       -1.4778  -0.1494  1.3149
N       1.5114  0.1544  -1.3372
N       1.5506  -0.1541  1.3740
C       -2.7974  0.4122  -0.6407
C       -2.7731  -0.4041  0.6308
C       2.8007  0.4058  -0.6306
C       2.8254  -0.4120  0.6405
H       -1.2204  0.8989  -1.9567
H       -2.8855  1.4625  -0.4227
H       -3.6360  0.1123  -1.2502
H       -3.5940  -0.1161  1.2677
H       -2.8616  -1.4544  0.4055
H       -1.3985  0.7302  1.8041
H       -1.1718  -0.9093  1.9046
H       1.4408  -0.7293  -1.8212
H       1.2321  0.9096  -1.9388
H       3.6309  0.1194  -1.2586
H       2.8869  1.4562  -0.4048
H       2.9123  -1.4624  0.4220
H       3.6750  -0.1130  1.2391
H       1.2814  -0.8999  1.9900
H       1.4894  0.7367  1.8437
H       -1.4456  -0.7379  -1.8259
