27

Co      0.0000  0.0244  0.0017
Cl      0.0002  -2.3204  -0.2165
Cl      -0.0001  2.2868  0.2133
N       -1.4289  0.1579  -1.3146
N       -1.4289  -0.1631  1.3162
N       1.4290  0.1560  -1.3145
N       1.4289  -0.1607  1.3162
C       -2.7551  0.3910  -0.6566
C       -2.7553  -0.3903  0.6549
C       2.7552  0.3910  -0.6567
C       2.7553  -0.3899  0.6551
H       -1.2966  0.8916  -1.9875
H       -2.8064  1.4543  -0.4901
H       -3.6104  0.0921  -1.2441
H       -3.6081  -0.0944  1.2448
H       -2.8071  -1.4536  0.4851
H       -1.5532  0.6567  1.8891
H       -1.2785  -0.9258  1.9516
H       1.5441  -0.6893  -1.8428
H       1.2968  0.8894  -1.9896
H       3.6103  0.0936  -1.2442
H       2.8046  1.4562  -0.4889
H       2.8055  -1.4551  0.4839
H       3.6103  -0.0954  1.2427
H       1.2784  -0.9232  1.9539
H       1.5570  0.6574  1.8869
H       -1.5422  -0.6890  -1.8451
