27

Co      -0.0370  0.0031  -0.0194
Cl      0.0035  -2.2959  -0.2186
Cl      0.0031  2.2939  0.2208
N       -1.4799  0.1332  -1.3713
N       -1.4733  -0.1313  1.3528
N       1.4742  0.1402  -1.3567
N       1.5461  -0.1379  1.4119
C       -2.7482  0.4152  -0.6287
C       -2.7484  -0.4173  0.6372
C       2.7515  0.4088  -0.6186
C       2.8008  -0.4252  0.6469
H       -1.3050  0.8718  -2.0261
H       -2.7552  1.4670  -0.3921
H       -3.6056  0.1965  -1.2461
H       -3.5982  -0.1819  1.2557
H       -2.7701  -1.4712  0.4097
H       -1.5324  0.7342  1.8530
H       -1.2747  -0.8637  2.0048
H       1.5424  -0.7199  -1.8719
H       1.3167  0.8844  -2.0064
H       3.6005  0.2018  -1.2546
H       2.7585  1.4587  -0.3761
H       2.8227  -1.4773  0.4280
H       3.6814  -0.1769  1.2249
H       1.3843  -0.8562  2.0882
H       1.6237  0.7407  1.8944
H       -1.5491  -0.7276  -1.8747
