27

Co      0.0000  0.0031  -0.0194
Cl      0.0002  -2.3127  -0.2157
Cl      -0.0001  2.3107  0.2179
N       -1.4688  0.1510  -1.3312
N       -1.5016  -0.1490  1.3495
N       1.4689  0.1509  -1.3312
N       1.5015  -0.1486  1.3496
C       -2.7712  0.3992  -0.6306
C       -2.7959  -0.4087  0.6489
C       2.7712  0.3992  -0.6307
C       2.7959  -0.4083  0.6492
H       -1.3008  0.9067  -1.9674
H       -2.8210  1.4529  -0.4148
H       -3.5957  0.1423  -1.2779
H       -3.6325  -0.1228  1.2678
H       -2.8605  -1.4644  0.4496
H       -1.5529  0.7127  1.8596
H       -1.3197  -0.8889  1.9976
H       1.5204  -0.7001  -1.8589
H       1.3010  0.9064  -1.9676
H       3.5957  0.1419  -1.2781
H       2.8211  1.4529  -0.4155
H       2.8608  -1.4641  0.4503
H       3.6324  -0.1220  1.2680
H       1.3196  -0.8881  1.9980
H       1.5526  0.7134  1.8592
H       -1.5204  -0.6988  -1.8593
