27

Co      0.0245  0.0000  0.0000
Cl      -0.0030  -2.2637  -0.2151
Cl      -0.0034  2.2637  0.2152
N       -1.4571  0.1416  -1.3098
N       -1.4571  -0.1417  1.3097
N       1.4440  0.1432  -1.3375
N       1.4440  -0.1429  1.3375
C       -2.7656  0.4089  -0.6349
C       -2.7658  -0.4081  0.6349
C       2.7379  0.4055  -0.6399
C       2.7380  -0.4044  0.6400
H       -1.2816  0.8738  -1.9712
H       -2.8190  1.4636  -0.4206
H       -3.5859  0.1468  -1.2814
H       -3.5859  -0.1457  1.2816
H       -2.8197  -1.4628  0.4206
H       -1.5119  0.7245  1.8110
H       -1.2820  -0.8743  1.9707
H       1.4975  -0.7153  -1.8528
H       1.2622  0.8882  -1.9812
H       3.5695  0.1415  -1.2701
H       2.7864  1.4603  -0.4294
H       2.7873  -1.4592  0.4295
H       3.5695  -0.1400  1.2703
H       1.2623  -0.8883  1.9809
H       1.4969  0.7154  1.8531
H       -1.5122  -0.7248  -1.8107
