27

Co      -0.0245  -0.0244  -0.0017
Cl      0.0035  -2.2781  -0.2180
Cl      0.0031  2.3118  0.2214
N       -1.4909  0.1331  -1.3852
N       -1.4909  -0.1282  1.3835
N       1.5040  0.1333  -1.3574
N       1.5040  -0.1279  1.3557
C       -2.7349  0.4201  -0.6010
C       -2.7351  -0.4194  0.6027
C       2.7627  0.4233  -0.5962
C       2.7629  -0.4222  0.5980
H       -1.2844  0.8843  -2.0154
H       -2.8457  1.4714  -0.3941
H       -3.5896  0.0883  -1.1749
H       -3.5896  -0.0839  1.1767
H       -2.8464  -1.4693  0.3992
H       -1.6297  0.7331  1.8859
H       -1.3033  -0.8511  2.0503
H       1.6562  -0.7116  -1.8883
H       1.3042  0.8711  -2.0040
H       3.6059  0.0910  -1.1850
H       2.8818  1.4714  -0.3884
H       2.8827  -1.4703  0.3935
H       3.6059  -0.0860  1.1869
H       1.3229  -0.8375  2.0390
H       1.6423  0.7437  1.8449
H       -1.6434  -0.7015  -1.9293
