27

Co      0.0000  0.0031  -0.0194
Cl      0.0002  -2.2941  -0.2149
Cl      -0.0001  2.2921  0.2170
N       -1.4677  0.1508  -1.3659
N       -1.5004  -0.1489  1.3842
N       1.4677  0.1507  -1.3658
N       1.5003  -0.1484  1.3843
C       -2.7517  0.3989  -0.6330
C       -2.7765  -0.4084  0.6513
C       2.7518  0.3988  -0.6331
C       2.7765  -0.4079  0.6516
H       -1.3032  0.9129  -1.9946
H       -2.7895  1.4525  -0.4147
H       -3.5937  0.1515  -1.2596
H       -3.6305  -0.1320  1.2496
H       -2.8290  -1.4641  0.4494
H       -1.5566  0.7090  1.8997
H       -1.3221  -0.8950  2.0248
H       1.5242  -0.6963  -1.8990
H       1.3034  0.9126  -1.9948
H       3.5937  0.1512  -1.2598
H       2.7896  1.4526  -0.4153
H       2.8293  -1.4637  0.4501
H       3.6304  -0.1312  1.2497
H       1.3220  -0.8943  2.0251
H       1.5564  0.7097  1.8994
H       -1.5242  -0.6950  -1.8994
