27

Co      -0.0370  0.0000  0.0000
Cl      0.0035  -2.3152  -0.2168
Cl      0.0031  2.3153  0.2169
N       -1.5127  0.1499  -1.3832
N       -1.4734  -0.1500  1.3463
N       1.5070  0.1550  -1.3686
N       1.5462  -0.1547  1.4054
C       -2.7772  0.4110  -0.6431
C       -2.7528  -0.4029  0.6332
C       2.7805  0.4046  -0.6330
C       2.8052  -0.4108  0.6429
H       -1.2188  0.9058  -1.9797
H       -2.8557  1.4613  -0.4242
H       -3.6307  0.1174  -1.2352
H       -3.5888  -0.1212  1.2528
H       -2.8318  -1.4532  0.4070
H       -1.3965  0.7257  1.8418
H       -1.1701  -0.9162  1.9276
H       1.4388  -0.7248  -1.8589
H       1.2305  0.9165  -1.9618
H       3.6256  0.1245  -1.2437
H       2.8572  1.4550  -0.4063
H       2.8825  -1.4612  0.4235
H       3.6697  -0.1180  1.2242
H       1.2797  -0.9068  2.0130
H       1.4874  0.7322  1.8814
H       -1.4436  -0.7334  -1.8636
