27

Co      0.0000  -0.0031  0.0194
Cl      0.0002  -2.3080  -0.2196
Cl      -0.0001  2.3101  0.2177
N       -1.4745  0.1446  -1.3583
N       -1.4418  -0.1467  1.3398
N       1.4745  0.1445  -1.3582
N       1.4417  -0.1463  1.3398
C       -2.7608  0.4103  -0.6490
C       -2.7365  -0.3994  0.6305
C       2.7609  0.4102  -0.6491
C       2.7365  -0.3989  0.6308
H       -1.2912  0.8823  -2.0076
H       -2.8154  1.4660  -0.4462
H       -3.6037  0.1334  -1.2608
H       -3.5669  -0.1507  1.2712
H       -2.7772  -1.4530  0.4114
H       -1.4956  0.7045  1.8656
H       -1.2733  -0.9012  1.9764
H       1.5286  -0.7184  -1.8649
H       1.2914  0.8820  -2.0078
H       3.6037  0.1330  -1.2609
H       2.8155  1.4660  -0.4468
H       2.7775  -1.4527  0.4121
H       3.5668  -0.1499  1.2713
H       1.2732  -0.9004  1.9768
H       1.4954  0.7052  1.8653
H       -1.5286  -0.7192  -1.8653
