27

Co      -0.0125  0.0031  -0.0194
Cl      0.0002  -2.3127  -0.2157
Cl      -0.0001  2.3107  0.2179
N       -1.4661  0.1278  -1.3259
N       -1.4596  -0.1258  1.3074
N       1.4474  0.1345  -1.3391
N       1.5193  -0.1322  1.3943
C       -2.7971  0.3996  -0.6081
C       -2.7973  -0.4018  0.6167
C       2.7726  0.3899  -0.6030
C       2.8219  -0.4064  0.6313
H       -1.2769  0.9242  -1.9138
H       -2.8488  1.4504  -0.3905
H       -3.6267  0.1309  -1.2429
H       -3.6193  -0.1163  1.2525
H       -2.8638  -1.4546  0.4081
H       -1.5289  0.6910  1.8906
H       -1.2466  -0.9162  1.8924
H       1.5260  -0.6670  -1.9502
H       1.2690  0.9497  -1.9079
H       3.6053  0.1309  -1.2385
H       2.8190  1.4408  -0.3808
H       2.8832  -1.4593  0.4328
H       3.6862  -0.1060  1.2088
H       1.3388  -0.9215  1.9898
H       1.6073  0.6877  1.9726
H       -1.5455  -0.6844  -1.9123
