27

Co      0.0000  0.0031  -0.0194
Cl      0.0002  -2.2745  -0.2122
Cl      -0.0001  2.2725  0.2144
N       -1.4967  0.1527  -1.3700
N       -1.5294  -0.1508  1.3883
N       1.4967  0.1527  -1.3699
N       1.5294  -0.1503  1.3884
C       -2.7673  0.4035  -0.6288
C       -2.7920  -0.4131  0.6471
C       2.7673  0.4035  -0.6289
C       2.7920  -0.4126  0.6474
H       -1.2194  0.9198  -1.9594
H       -2.8353  1.4529  -0.3959
H       -3.6130  0.1345  -1.2412
H       -3.6520  -0.1150  1.2288
H       -2.8748  -1.4644  0.4306
H       -1.4653  0.7365  1.8648
H       -1.2382  -0.9019  1.9896
H       1.4306  -0.7238  -1.8641
H       1.2196  0.9195  -1.9597
H       3.6130  0.1341  -1.2413
H       2.8354  1.4529  -0.3965
H       2.8751  -1.4641  0.4313
H       3.6497  -0.1141  1.2312
H       1.2381  -0.9011  1.9900
H       1.4628  0.7372  1.8645
H       -1.4306  -0.7225  -1.8645
