27

Co      0.0000  0.0000  0.0000
Cl      0.0002  -2.3171  -0.2205
Cl      -0.0001  2.3172  0.2206
N       -1.5102  0.1398  -1.3673
N       -1.5102  -0.1399  1.3672
N       1.5102  0.1416  -1.3672
N       1.5102  -0.1413  1.3672
C       -2.7792  0.4187  -0.6376
C       -2.7794  -0.4180  0.6376
C       2.7792  0.4186  -0.6378
C       2.7794  -0.4175  0.6378
H       -1.2591  0.8667  -2.0134
H       -2.7910  1.4739  -0.4125
H       -3.6828  0.1721  -1.1848
H       -3.6827  -0.1710  1.1850
H       -2.7917  -1.4732  0.4125
H       -1.5358  0.7386  1.8474
H       -1.2596  -0.8672  2.0130
H       1.5341  -0.7392  -1.8486
H       1.2593  0.8682  -2.0118
H       3.6827  0.1698  -1.1850
H       2.7930  1.4721  -0.4150
H       2.7938  -1.4710  0.4150
H       3.6827  -0.1683  1.1851
H       1.2595  -0.8683  2.0115
H       1.5336  0.7393  1.8489
H       -1.5360  -0.7390  -1.8471
