27

Co      0.0000  0.0000  0.0000
Cl      0.0002  -2.3135  -0.2205
Cl      -0.0001  2.3136  0.2206
N       -1.5326  0.1342  -1.3485
N       -1.4933  -0.1343  1.3116
N       1.4934  0.1360  -1.3116
N       1.5326  -0.1357  1.3485
C       -2.7691  0.4257  -0.6248
C       -2.7447  -0.4177  0.6150
C       2.7446  0.4183  -0.6151
C       2.7693  -0.4246  0.6250
H       -1.3270  0.8519  -2.0182
H       -2.8714  1.4800  -0.4242
H       -3.6105  0.1074  -1.2242
H       -3.5662  -0.1113  1.2440
H       -2.8476  -1.4705  0.4070
H       -1.6112  0.7193  1.8267
H       -1.2784  -0.8622  1.9662
H       1.6095  -0.7199  -1.8279
H       1.2781  0.8633  -1.9650
H       3.5662  0.1101  -1.2440
H       2.8489  1.4693  -0.4095
H       2.8743  -1.4756  0.4267
H       3.6104  -0.1036  1.2245
H       1.3274  -0.8535  2.0163
H       1.6581  0.7274  1.8503
H       -1.6605  -0.7270  -1.8485
