27

Co      -0.0125  0.0031  -0.0194
Cl      0.0002  -2.2931  -0.2131
Cl      -0.0001  2.2911  0.2152
N       -1.4934  0.1493  -1.3219
N       -1.4868  -0.1474  1.3034
N       1.4746  0.1561  -1.3351
N       1.5466  -0.1538  1.3903
C       -2.8013  0.4040  -0.6332
C       -2.8015  -0.4062  0.6418
C       2.7768  0.3943  -0.6281
C       2.8260  -0.4108  0.6564
H       -1.3209  0.8965  -1.9689
H       -2.8580  1.4577  -0.4209
H       -3.6225  0.1383  -1.2813
H       -3.6151  -0.1237  1.2908
H       -2.8730  -1.4619  0.4385
H       -1.5287  0.7121  1.8160
H       -1.2907  -0.8885  1.9475
H       1.5258  -0.6880  -1.8756
H       1.3130  0.9220  -1.9608
H       3.6010  0.1406  -1.2783
H       2.8268  1.4481  -0.4112
H       2.8910  -1.4666  0.4632
H       3.6819  -0.1157  1.2486
H       1.3806  -0.8938  2.0427
H       1.6071  0.7088  1.8981
H       -1.5453  -0.7055  -1.8378
