27

Co      0.0000  0.0000  0.0000
Cl      0.0002  -2.2823  -0.2159
Cl      -0.0001  2.2823  0.2160
N       -1.4431  0.1469  -1.2890
N       -1.4431  -0.1470  1.2889
N       1.4431  0.1468  -1.2889
N       1.4430  -0.1466  1.2889
C       -2.7841  0.3730  -0.6307
C       -2.7843  -0.3723  0.6306
C       2.7842  0.3730  -0.6308
C       2.7843  -0.3719  0.6309
H       -1.3558  0.8966  -1.9575
H       -2.7347  1.4277  -0.3860
H       -3.6360  0.2086  -1.2767
H       -3.6359  -0.2075  1.2769
H       -2.7354  -1.4270  0.3860
H       -1.3755  0.7363  1.7748
H       -1.3562  -0.8971  1.9571
H       1.3757  -0.7369  -1.7741
H       1.3560  0.8963  -1.9578
H       3.6359  0.2082  -1.2769
H       2.7348  1.4277  -0.3866
H       2.7356  -1.4266  0.3867
H       3.6359  -0.2067  1.2770
H       1.3561  -0.8964  1.9574
H       1.3752  0.7370  1.7745
H       -1.3758  -0.7367  -1.7745
