27

Co      0.0250  0.0427  0.0422
Cl      0.0002  -2.3565  -0.2192
Cl      -0.0001  2.2933  0.2084
N       -1.4104  0.1732  -1.3719
N       -1.4235  -0.1875  1.4120
N       1.4480  0.1557  -1.3453
N       1.3039  -0.1696  1.2383
C       -2.7390  0.3702  -0.6817
C       -2.7392  -0.3637  0.6612
C       2.7882  0.3894  -0.6924
C       2.6901  -0.3531  0.6326
H       -1.4796  0.9253  -2.0726
H       -2.8008  1.4394  -0.5604
H       -3.5594  0.0575  -1.3117
H       -3.5696  -0.0901  1.2942
H       -2.7728  -1.4288  0.5152
H       -1.7242  0.5474  2.1134
H       -1.5044  -1.0103  2.0432
H       1.7120  -0.6613  -1.9008
H       1.4960  0.8697  -2.0932
H       3.6022  0.0556  -1.3181
H       2.8599  1.4624  -0.5780
H       2.7339  -1.4220  0.4641
H       3.4401  -0.1074  1.3746
H       1.3241  -0.9936  1.8577
H       1.5749  0.5561  1.9445
H       -1.6693  -0.6256  -1.9814
