27

Co      -0.0490  -0.0488  -0.0034
Cl      0.0068  -2.2719  -0.2164
Cl      0.0064  2.3393  0.2232
N       -1.6095  0.1315  -1.4089
N       -1.6095  -0.1216  1.4054
N       1.6357  0.1319  -1.3533
N       1.6356  -0.1215  1.3499
C       -2.7457  0.4378  -0.5899
C       -2.7460  -0.4371  0.5933
C       2.8014  0.4443  -0.5802
C       2.8015  -0.4432  0.5837
H       -1.2753  0.9104  -1.9644
H       -2.9576  1.4780  -0.3524
H       -3.5222  0.0732  -1.2550
H       -3.5267  -0.0654  1.2540
H       -2.9583  -1.4744  0.3625
H       -1.6326  0.7756  1.8560
H       -1.3127  -0.8436  2.0347
H       1.6809  -0.7319  -1.8616
H       1.3147  0.8844  -1.9413
H       3.5549  0.0789  -1.2780
H       3.0269  1.4780  -0.3405
H       3.0277  -1.4769  0.3506
H       3.5548  -0.0706  1.2815
H       1.3519  -0.8171  2.0117
H       1.6535  0.7959  1.7744
H       -1.6553  -0.7120  -1.9432
