27

Co      0.0250  0.0000  0.0000
Cl      0.0002  -2.2857  -0.2084
Cl      -0.0001  2.2858  0.2085
N       -1.4569  0.1887  -1.3867
N       -1.4569  -0.1888  1.3866
N       1.4160  0.1712  -1.2864
N       1.4159  -0.1709  1.2864
C       -2.7746  0.3721  -0.6811
C       -2.7749  -0.3714  0.6811
C       2.7747  0.3767  -0.6722
C       2.7749  -0.3756  0.6722
H       -1.3783  0.9632  -2.0286
H       -2.8147  1.4442  -0.5590
H       -3.6958  0.0448  -1.1732
H       -3.6912  -0.0437  1.1779
H       -2.8153  -1.4434  0.5590
H       -1.6519  0.6052  2.0004
H       -1.3788  -0.9637  2.0281
H       1.6012  -0.6286  -1.8753
H       1.2966  0.9273  -1.9460
H       3.6502  0.0527  -1.2189
H       2.8247  1.4525  -0.5422
H       2.8255  -1.4514  0.5422
H       3.6502  -0.0511  1.2190
H       1.2967  -0.9273  1.9457
H       1.6007  0.6287  1.8756
H       -1.6567  -0.6056  -2.0000
