27

Co      -0.0490  0.0000  0.0000
Cl      0.0068  -2.2503  -0.2106
Cl      0.0064  2.2503  0.2107
N       -1.5313  0.1176  -1.3736
N       -1.5313  -0.1177  1.3735
N       1.5575  0.1143  -1.3179
N       1.5574  -0.1140  1.3179
C       -2.7611  0.4370  -0.6362
C       -2.7614  -0.4363  0.6362
C       2.8168  0.4435  -0.6265
C       2.8169  -0.4424  0.6266
H       -0.9712  0.9674  -1.7877
H       -2.9313  1.4830  -0.4258
H       -3.5851  0.0673  -1.2322
H       -3.5896  -0.0662  1.2278
H       -2.9319  -1.4823  0.4259
H       -1.4772  0.6882  1.9822
H       -0.9717  -0.9679  1.7872
H       1.5024  -0.7084  -1.8964
H       1.0107  0.9376  -1.7727
H       3.6178  0.0723  -1.2552
H       2.9968  1.4895  -0.4101
H       2.9976  -1.4884  0.4102
H       3.6177  -0.0707  1.2553
H       1.0153  -0.9377  1.7724
H       1.5018  0.7085  1.8968
H       -1.4730  -0.6885  -1.9818
