27

Co      -0.0490  0.0000  0.0000
Cl      0.0068  -2.3018  -0.2123
Cl      0.0064  2.3019  0.2124
N       -1.5359  0.1625  -1.4143
N       -1.5359  -0.1626  1.4142
N       1.5621  0.1591  -1.3587
N       1.5620  -0.1589  1.3587
C       -2.8036  0.3978  -0.6495
C       -2.8038  -0.3971  0.6494
C       2.8592  0.4043  -0.6398
C       2.8594  -0.4032  0.6399
H       -1.3631  0.9402  -2.0211
H       -2.8567  1.4525  -0.4495
H       -3.6642  0.1208  -1.2437
H       -3.6641  -0.1197  1.2439
H       -2.8574  -1.4518  0.4495
H       -1.5878  0.6726  1.9660
H       -1.3636  -0.9407  2.0206
H       1.6174  -0.6929  -1.8803
H       1.4026  0.9104  -2.0017
H       3.6968  0.1302  -1.2668
H       2.9222  1.4591  -0.4338
H       2.9231  -1.4580  0.4338
H       3.6968  -0.1287  1.2669
H       1.4027  -0.9105  2.0013
H       1.6169  0.6930  1.8807
H       -1.5880  -0.6730  -1.9657
