27

Co      0.0250  0.0488  0.0034
Cl      0.0002  -2.3122  -0.2118
Cl      -0.0001  2.2449  0.2051
N       -1.4253  0.1715  -1.3580
N       -1.4253  -0.1818  1.3613
N       1.3844  0.1541  -1.2578
N       1.3843  -0.1639  1.2612
C       -2.8115  0.4044  -0.6853
C       -2.8117  -0.4037  0.6819
C       2.8116  0.4089  -0.6763
C       2.8117  -0.4078  0.6730
H       -1.2575  0.9172  -1.9994
H       -2.8891  1.4600  -0.5089
H       -3.5979  0.1025  -1.3677
H       -3.5979  -0.1081  1.3645
H       -2.8897  -1.4621  0.4988
H       -1.4707  0.6322  1.9582
H       -1.2209  -0.9851  1.9283
H       1.3886  -0.7196  -1.7456
H       1.1758  0.8813  -1.9169
H       3.5523  0.1104  -1.4134
H       2.8991  1.4712  -0.4921
H       2.8999  -1.4701  0.4821
H       3.5523  -0.1156  1.4101
H       1.1389  -0.9487  1.8459
H       1.4150  0.6557  1.8335
H       -1.4441  -0.6965  -1.8703
