27

Co      -0.0490  -0.0488  -0.0034
Cl      0.0068  -2.2558  -0.2125
Cl      0.0064  2.3232  0.2194
N       -1.4602  0.1541  -1.3759
N       -1.4602  -0.1441  1.3724
N       1.4864  0.1507  -1.3202
N       1.4863  -0.1403  1.3169
C       -2.7386  0.4019  -0.6430
C       -2.7388  -0.4012  0.6463
C       2.7942  0.4084  -0.6333
C       2.7944  -0.4073  0.6367
H       -1.2599  0.9425  -1.9640
H       -2.7846  1.4566  -0.4328
H       -3.5850  0.1384  -1.2546
H       -3.5849  -0.1306  1.2581
H       -2.7853  -1.4559  0.4429
H       -1.4989  0.7312  1.8626
H       -1.2974  -0.8757  2.0343
H       1.5555  -0.6874  -1.8644
H       1.2994  0.9128  -1.9447
H       3.6176  0.1478  -1.2776
H       2.8501  1.4632  -0.4171
H       2.8510  -1.4621  0.4272
H       3.6176  -0.1395  1.2811
H       1.3366  -0.8455  2.0150
H       1.5281  0.7515  1.7772
H       -1.5261  -0.6676  -1.9498
