27

Co      -0.0250  0.0061  -0.0389
Cl      0.0002  -2.3024  -0.2214
Cl      -0.0001  2.2984  0.2255
N       -1.4603  0.1174  -1.3316
N       -1.5257  -0.1134  1.3683
N       1.5013  0.1347  -1.4317
N       1.5667  -0.1304  1.4685
C       -2.7333  0.4211  -0.6029
C       -2.7826  -0.4408  0.6396
C       2.7334  0.4165  -0.6121
C       2.7826  -0.4358  0.6490
H       -1.2824  0.8445  -2.0013
H       -2.7011  1.4700  -0.3292
H       -3.5820  0.2628  -1.2556
H       -3.6556  -0.2249  1.2353
H       -2.7795  -1.4938  0.3987
H       -1.6015  0.7765  1.8217
H       -1.3196  -0.8083  2.0622
H       1.5918  -0.7278  -1.9454
H       1.3645  0.8799  -2.0843
H       3.6275  0.2541  -1.2102
H       2.6913  1.4617  -0.3472
H       2.7699  -1.4851  0.4168
H       3.7011  -0.2158  1.1899
H       1.4015  -0.8431  2.1453
H       1.6567  0.7545  1.9458
H       -1.5364  -0.7483  -1.8214
