27

Co      -0.0741  0.0000  0.0000
Cl      0.0068  -2.3338  -0.2176
Cl      0.0064  2.3339  0.2177
N       -1.4914  0.1476  -1.3257
N       -1.4914  -0.1478  1.3256
N       1.5585  0.1580  -1.3702
N       1.5585  -0.1577  1.3702
C       -2.7682  0.4118  -0.6317
C       -2.7684  -0.4111  0.6317
C       2.8238  0.4138  -0.6312
C       2.8240  -0.4127  0.6312
H       -1.0616  0.9081  -1.8775
H       -2.8863  1.4578  -0.3967
H       -3.5944  0.0949  -1.2487
H       -3.5989  -0.0938  1.2444
H       -2.8870  -1.4571  0.3968
H       -1.2887  0.7641  1.7701
H       -1.0621  -0.9087  1.8771
H       1.3730  -0.7616  -1.8050
H       1.1830  0.9103  -1.9447
H       3.6726  0.0998  -1.2262
H       2.9382  1.4598  -0.3947
H       2.9390  -1.4587  0.3947
H       3.6725  -0.0982  1.2264
H       1.1832  -0.9103  1.9443
H       1.3725  0.7617  1.8054
H       -1.2844  -0.7645  -1.7698
