27

Co      0.0000  -0.0488  -0.0034
Cl      0.0002  -2.2595  -0.2200
Cl      -0.0001  2.3269  0.2269
N       -1.5469  0.1164  -1.3410
N       -1.5469  -0.1065  1.3375
N       1.5469  0.1201  -1.3409
N       1.5468  -0.1097  1.3376
C       -2.7085  0.4451  -0.5802
C       -2.7088  -0.4444  0.5836
C       2.7086  0.4451  -0.5804
C       2.7087  -0.4440  0.5838
H       -1.2102  0.8643  -1.9330
H       -2.9182  1.4853  -0.3326
H       -3.4594  0.0923  -1.2789
H       -3.4639  -0.0845  1.2779
H       -2.9189  -1.4818  0.3427
H       -1.5719  0.8119  1.7538
H       -1.2477  -0.7976  2.0032
H       1.5908  -0.7486  -1.8444
H       1.2104  0.8678  -1.9294
H       3.4593  0.0882  -1.2791
H       2.9221  1.4788  -0.3369
H       2.9229  -1.4777  0.3471
H       3.4593  -0.0799  1.2826
H       1.2476  -0.8005  1.9998
H       1.5634  0.8126  1.7573
H       -1.5946  -0.7483  -1.8411
