27

Co      0.0000  -0.0488  -0.0034
Cl      0.0002  -2.2719  -0.2164
Cl      -0.0001  2.3393  0.2232
N       -1.5677  0.1359  -1.3845
N       -1.5677  -0.1259  1.3810
N       1.5677  0.1396  -1.3844
N       1.5677  -0.1292  1.3810
C       -2.8276  0.4273  -0.6241
C       -2.8278  -0.4266  0.6275
C       2.8277  0.4273  -0.6243
C       2.8278  -0.4262  0.6277
H       -1.3792  0.8879  -2.0209
H       -2.8220  1.4783  -0.3726
H       -3.6993  0.2265  -1.2348
H       -3.6992  -0.2187  1.2383
H       -2.8226  -1.4775  0.3827
H       -1.6340  0.7706  1.8273
H       -1.4167  -0.8211  2.0911
H       1.6574  -0.7073  -1.9179
H       1.3794  0.8914  -2.0173
H       3.6992  0.2224  -1.2349
H       2.8258  1.4745  -0.3770
H       2.8267  -1.4734  0.3871
H       3.6992  -0.2141  1.2384
H       1.4166  -0.8241  2.0877
H       1.6300  0.7714  1.8307
H       -1.6612  -0.7070  -1.9145
