27

Co      0.0741  0.0427  0.0422
Cl      -0.0063  -2.2729  -0.2121
Cl      -0.0067  2.2098  0.2014
N       -1.4576  0.1703  -1.3643
N       -1.4707  -0.1846  1.4044
N       1.4691  0.1561  -1.3933
N       1.3250  -0.1700  1.2862
C       -2.7638  0.3845  -0.6684
C       -2.7640  -0.3781  0.6479
C       2.7573  0.3972  -0.6889
C       2.6593  -0.3609  0.6292
H       -1.3076  0.9175  -2.0062
H       -2.8789  1.4450  -0.5095
H       -3.5887  0.0419  -1.2760
H       -3.6034  -0.0746  1.2539
H       -2.8509  -1.4345  0.4643
H       -1.5375  0.6191  2.0096
H       -1.3324  -1.0025  1.9768
H       1.4914  -0.7134  -1.8820
H       1.2848  0.8913  -2.0464
H       3.5988  0.0302  -1.2595
H       2.8726  1.4615  -0.5435
H       2.7466  -1.4211  0.4295
H       3.4368  -0.0820  1.3160
H       1.1129  -1.0152  1.8109
H       1.3542  0.6082  1.9257
H       -1.4781  -0.6973  -1.8776
