27

Co      0.0000  0.0000  0.0000
Cl      0.0002  -2.3215  -0.2213
Cl      -0.0001  2.3215  0.2214
N       -1.4128  0.1434  -1.2943
N       -1.4128  -0.1435  1.2942
N       1.4128  0.1433  -1.2943
N       1.4128  -0.1430  1.2943
C       -2.7485  0.3730  -0.6307
C       -2.7487  -0.3723  0.6306
C       2.7486  0.3730  -0.6308
C       2.7487  -0.3719  0.6309
H       -1.3237  0.8912  -1.9629
H       -2.6920  1.4277  -0.3842
H       -3.6039  0.2140  -1.2732
H       -3.6039  -0.2129  1.2733
H       -2.6926  -1.4270  0.3842
H       -1.3452  0.7416  1.7783
H       -1.3242  -0.8918  1.9624
H       1.3455  -0.7423  -1.7776
H       1.3239  0.8910  -1.9631
H       3.6039  0.2136  -1.2733
H       2.6921  1.4277  -0.3848
H       2.6929  -1.4266  0.3849
H       3.6038  -0.2120  1.2734
H       1.3241  -0.8910  1.9628
H       1.3449  0.7424  1.7780
H       -1.3455  -0.7420  -1.7780
