27

Co      0.0000  0.0427  0.0422
Cl      0.0002  -2.3531  -0.2267
Cl      -0.0001  2.2899  0.2159
N       -1.3968  0.1365  -1.2607
N       -1.4099  -0.1508  1.3008
N       1.4754  0.1364  -1.3342
N       1.3313  -0.1503  1.2272
C       -2.7400  0.4059  -0.6633
C       -2.7403  -0.3995  0.6428
C       2.7892  0.4206  -0.6831
C       2.6912  -0.3843  0.6234
H       -1.2794  0.8093  -2.0094
H       -2.7423  1.4762  -0.5045
H       -3.6308  0.1282  -1.2111
H       -3.6410  -0.1608  1.1936
H       -2.7144  -1.4657  0.4593
H       -1.6405  0.6536  1.8841
H       -1.3042  -0.8944  1.9800
H       1.6838  -0.7447  -1.7958
H       1.3778  0.7894  -2.1127
H       3.7191  0.1180  -1.1720
H       2.7915  1.4910  -0.5395
H       2.6656  -1.4506  0.4255
H       3.5571  -0.1697  1.2285
H       1.2059  -0.9132  1.8773
H       1.5466  0.6396  1.8396
H       -1.5856  -0.7318  -1.7521
