27

Co      0.0000  0.0000  0.0000
Cl      0.0002  -2.3177  -0.2138
Cl      -0.0001  2.3178  0.2139
N       -1.3478  0.1750  -1.3014
N       -1.3478  -0.1752  1.3013
N       1.3478  0.1712  -1.3013
N       1.3478  -0.1709  1.3013
C       -2.7934  0.3676  -0.6928
C       -2.7936  -0.3669  0.6928
C       2.7934  0.3676  -0.6930
C       2.7936  -0.3665  0.6930
H       -1.3067  0.9331  -1.9755
H       -2.6905  1.4368  -0.5151
H       -3.6897  0.1915  -1.2775
H       -3.6851  -0.1904  1.2822
H       -2.6911  -1.4389  0.5151
H       -1.4123  0.6577  1.8619
H       -1.3071  -0.9336  1.9750
H       1.4208  -0.6583  -1.8574
H       1.3069  0.9290  -1.9795
H       3.6896  0.1948  -1.2776
H       2.6868  1.4434  -0.5120
H       2.6877  -1.4423  0.5121
H       3.6896  -0.1933  1.2778
H       1.3070  -0.9291  1.9792
H       1.4203  0.6584  1.8578
H       -1.4170  -0.6581  -1.8615
