27

Co      0.0000  0.0488  0.0034
Cl      0.0002  -2.2787  -0.2176
Cl      -0.0001  2.2115  0.2109
N       -1.3848  0.1384  -1.3600
N       -1.3848  -0.1486  1.3633
N       1.3848  0.1383  -1.3599
N       1.3847  -0.1481  1.3633
C       -2.7863  0.3883  -0.6709
C       -2.7866  -0.3876  0.6675
C       2.7864  0.3882  -0.6710
C       2.7865  -0.3871  0.6677
H       -1.5225  0.8556  -2.1291
H       -2.6175  1.4489  -0.4385
H       -3.6394  0.3229  -1.3584
H       -3.6349  -0.3285  1.3597
H       -2.6181  -1.4510  0.4284
H       -1.5813  0.6448  1.9736
H       -1.4859  -0.9235  2.0579
H       1.5591  -0.7094  -1.8853
H       1.5227  0.8553  -2.1293
H       3.6394  0.3225  -1.3585
H       2.6176  1.4517  -0.4392
H       2.6184  -1.4506  0.4291
H       3.6393  -0.3276  1.3553
H       1.4859  -0.9227  2.0583
H       1.5855  0.6455  1.9732
H       -1.5591  -0.7091  -1.8857
