27

Co      0.0000  0.0488  0.0034
Cl      0.0002  -2.2750  -0.2101
Cl      -0.0001  2.2077  0.2034
N       -1.4125  0.1717  -1.3468
N       -1.4125  -0.1819  1.3501
N       1.4126  0.1679  -1.3468
N       1.4125  -0.1777  1.3502
C       -2.7405  0.3761  -0.6783
C       -2.7407  -0.3754  0.6749
C       2.7406  0.3761  -0.6784
C       2.7407  -0.3750  0.6751
H       -1.3320  0.9067  -2.0343
H       -2.7754  1.4481  -0.5521
H       -3.6474  0.0573  -1.1874
H       -3.6429  -0.0630  1.1887
H       -2.7760  -1.4474  0.5420
H       -1.6170  0.5915  1.9912
H       -1.2954  -0.9746  1.9631
H       1.5986  -0.6560  -1.8992
H       1.3322  0.9027  -2.0383
H       3.6474  0.0607  -1.1876
H       2.7718  1.4519  -0.5490
H       2.7726  -1.4508  0.5389
H       3.6473  -0.0659  1.1844
H       1.2953  -0.9701  1.9673
H       1.6250  0.5922  1.9871
H       -1.5949  -0.6558  -1.9034
