27

Co      -0.0741  0.0061  -0.0389
Cl      0.0068  -2.2523  -0.2085
Cl      0.0064  2.2483  0.2127
N       -1.4810  0.1168  -1.3283
N       -1.4678  -0.1128  1.2914
N       1.4696  0.1271  -1.2992
N       1.6135  -0.1227  1.4097
C       -2.7786  0.3925  -0.6271
C       -2.7789  -0.3975  0.6443
C       2.7852  0.3797  -0.6069
C       2.8835  -0.4138  0.6634
H       -1.2471  0.9732  -1.8389
H       -2.7757  1.4451  -0.4019
H       -3.6194  0.1853  -1.2687
H       -3.6046  -0.1572  1.2877
H       -2.8049  -1.4542  0.4371
H       -1.5189  0.6590  1.9476
H       -1.1862  -0.9566  1.7967
H       1.5423  -0.6299  -1.9825
H       1.2703  0.9950  -1.8073
H       3.6092  0.1956  -1.2855
H       2.7784  1.4324  -0.3655
H       2.9060  -1.4706  0.4694
H       3.7711  -0.1474  1.2259
H       1.4099  -0.9386  1.9714
H       1.7054  0.6714  2.0271
H       -1.5519  -0.6455  -1.9914
