27

Co      -0.0741  0.0061  -0.0389
Cl      0.0068  -2.2915  -0.2139
Cl      0.0064  2.2875  0.2181
N       -1.4070  0.1442  -1.3057
N       -1.4724  -0.1403  1.3424
N       1.4741  0.1545  -1.3502
N       1.5395  -0.1502  1.3870
C       -2.7140  0.3940  -0.6217
C       -2.7633  -0.4137  0.6585
C       2.7697  0.3959  -0.6211
C       2.8189  -0.4152  0.6580
H       -1.2191  0.9113  -1.9255
H       -2.7526  1.4466  -0.3962
H       -3.5254  0.1557  -1.2892
H       -3.5990  -0.1178  1.2689
H       -2.8310  -1.4704  0.4658
H       -1.5155  0.7249  1.8449
H       -1.2563  -0.8751  1.9863
H       1.5389  -0.6958  -1.8798
H       1.3405  0.9135  -1.9926
H       3.6036  0.1606  -1.2667
H       2.8045  1.4486  -0.3942
H       2.8830  -1.4721  0.4637
H       3.6771  -0.1222  1.2464
H       1.3774  -0.8767  2.0536
H       1.6039  0.7224  1.8802
H       -1.4504  -0.6966  -1.8446
