27

Co      0.0741  0.0427  0.0422
Cl      -0.0063  -2.3603  -0.2267
Cl      -0.0067  2.2971  0.2159
N       -1.4700  0.1419  -1.3539
N       -1.4831  -0.1562  1.3940
N       1.4814  0.1315  -1.3829
N       1.3374  -0.1454  1.2759
C       -2.7585  0.4090  -0.6497
C       -2.7588  -0.4026  0.6291
C       2.7521  0.4217  -0.6701
C       2.6541  -0.3855  0.6104
H       -1.3144  0.8478  -2.0428
H       -2.8148  1.4658  -0.4492
H       -3.6010  0.1311  -1.2639
H       -3.6157  -0.1637  1.2419
H       -2.7868  -1.4552  0.4039
H       -1.5710  0.6738  1.9522
H       -1.3392  -0.9328  2.0134
H       1.5211  -0.7681  -1.8283
H       1.2916  0.8254  -2.0793
H       3.6111  0.1156  -1.2474
H       2.8122  1.4785  -0.4868
H       2.6863  -1.4382  0.3729
H       3.4491  -0.1674  1.3039
H       1.1198  -0.9492  1.8438
H       1.3839  0.6630  1.8721
H       -1.5116  -0.7520  -1.8202
