27

Co      0.0000  0.0000  0.0000
Cl      0.0002  -2.3286  -0.2213
Cl      -0.0001  2.3287  0.2214
N       -1.4716  0.1524  -1.3403
N       -1.4716  -0.1525  1.3402
N       1.4716  0.1523  -1.3402
N       1.4715  -0.1520  1.3402
C       -2.7079  0.4052  -0.6855
C       -2.7081  -0.4045  0.6855
C       2.7079  0.4051  -0.6857
C       2.7081  -0.4040  0.6857
H       -1.2689  0.8945  -1.9778
H       -2.7059  1.4656  -0.4736
H       -3.5464  0.2054  -1.3328
H       -3.5463  -0.2043  1.3329
H       -2.7066  -1.4649  0.4737
H       -1.4883  0.7086  1.8502
H       -1.2693  -0.8951  1.9773
H       1.4885  -0.7092  -1.8495
H       1.2691  0.8942  -1.9780
H       3.5463  0.2050  -1.3358
H       2.7032  1.4656  -0.4743
H       2.7040  -1.4645  0.4743
H       3.5463  -0.2034  1.3359
H       1.2692  -0.8943  1.9777
H       1.4880  0.7093  1.8499
H       -1.4885  -0.7090  -1.8499
