27

Co      0.0000  0.0000  0.0000
Cl      0.0002  -2.2379  -0.2142
Cl      -0.0001  2.2379  0.2143
N       -1.4097  0.1420  -1.2874
N       -1.4097  -0.1421  1.2873
N       1.4098  0.1419  -1.2873
N       1.4097  -0.1416  1.2873
C       -2.7415  0.4047  -0.6531
C       -2.7418  -0.4040  0.6530
C       2.7416  0.4047  -0.6532
C       2.7418  -0.4036  0.6533
H       -1.2997  0.8501  -2.0033
H       -2.7247  1.4730  -0.4785
H       -3.6446  0.1533  -1.1933
H       -3.6401  -0.1522  1.1980
H       -2.7253  -1.4723  0.4785
H       -1.6222  0.6940  1.8232
H       -1.3002  -0.8506  2.0028
H       1.6270  -0.6946  -1.8225
H       1.2999  0.8498  -2.0035
H       3.6446  0.1530  -1.1935
H       2.7248  1.4730  -0.4792
H       2.7256  -1.4719  0.4792
H       3.6445  -0.1514  1.1936
H       1.3001  -0.8498  2.0032
H       1.6264  0.6947  1.8229
H       -1.6270  -0.6944  -1.8229
