27

Co      -0.0250  0.0000  0.0000
Cl      0.0002  -2.2932  -0.2234
Cl      -0.0001  2.2933  0.2235
N       -1.5127  0.0781  -1.2668
N       -1.5127  -0.0782  1.2667
N       1.5537  0.0954  -1.3669
N       1.5537  -0.0951  1.3669
C       -2.7175  0.4340  -0.5910
C       -2.7177  -0.4333  0.5910
C       2.7175  0.4295  -0.6003
C       2.7177  -0.4284  0.6003
H       -1.1889  0.8631  -1.8330
H       -2.8175  1.4878  -0.3763
H       -3.5447  0.1356  -1.2085
H       -3.5447  -0.1345  1.2087
H       -2.8181  -1.4843  0.3763
H       -1.7181  0.7020  1.8871
H       -1.1893  -0.8636  1.8325
H       1.7738  -0.6799  -2.0108
H       1.2710  0.8984  -1.9204
H       3.5902  0.1225  -1.1631
H       2.8077  1.4767  -0.3943
H       2.8085  -1.4756  0.3944
H       3.5902  -0.1209  1.1633
H       1.2756  -0.8984  1.9200
H       1.7733  0.6800  2.0112
H       -1.7184  -0.7024  -1.8868
