27

Co      0.0000  -0.0488  -0.0034
Cl      0.0002  -2.3073  -0.2142
Cl      -0.0001  2.3747  0.2211
N       -1.5649  0.1606  -1.3902
N       -1.5649  -0.1507  1.3867
N       1.5650  0.1606  -1.3901
N       1.5649  -0.1502  1.3868
C       -2.7546  0.3802  -0.5994
C       -2.7548  -0.3795  0.6028
C       2.7547  0.3802  -0.5996
C       2.7548  -0.3791  0.6030
H       -1.3342  0.9831  -1.9237
H       -2.9156  1.4242  -0.3673
H       -3.5439  0.0595  -1.2643
H       -3.5484  -0.0517  1.2633
H       -2.9163  -1.4207  0.3774
H       -1.4467  0.7475  1.8523
H       -1.3717  -0.9163  1.9939
H       1.4694  -0.6842  -1.9391
H       1.3344  0.9828  -1.9239
H       3.5439  0.0591  -1.2645
H       2.9157  1.4214  -0.3679
H       2.9166  -1.4203  0.3781
H       3.5439  -0.0508  1.2680
H       1.3716  -0.9155  1.9942
H       1.4420  0.7482  1.8519
H       -1.4694  -0.6839  -1.9395
