27

Co      -0.0250  0.0061  -0.0389
Cl      0.0002  -2.2967  -0.2102
Cl      -0.0001  2.2927  0.2144
N       -1.5413  0.1516  -1.3110
N       -1.5282  -0.1476  1.2741
N       1.5037  0.1652  -1.3375
N       1.6477  -0.1608  1.4479
C       -2.8316  0.4123  -0.6182
C       -2.8318  -0.4173  0.6354
C       2.7826  0.3929  -0.6078
C       2.8809  -0.4270  0.6644
H       -1.1440  0.9073  -1.8833
H       -2.9475  1.4562  -0.3728
H       -3.6502  0.1079  -1.2543
H       -3.6399  -0.0799  1.2688
H       -2.9767  -1.4653  0.4079
H       -1.3173  0.7756  1.7019
H       -1.0831  -0.8907  1.8410
H       1.3068  -0.7268  -1.8219
H       1.1280  0.9585  -1.8669
H       3.6073  0.1128  -1.2482
H       2.8848  1.4369  -0.3527
H       3.0124  -1.4751  0.4566
H       3.7692  -0.0646  1.1887
H       1.2631  -0.9022  2.0310
H       1.4699  0.7682  1.8664
H       -1.3458  -0.7620  -1.7458
