27

Co      0.0000  -0.0488  -0.0034
Cl      0.0002  -2.3073  -0.2142
Cl      -0.0001  2.3747  0.2211
N       -1.5284  0.1672  -1.3935
N       -1.5284  -0.1572  1.3901
N       1.5284  0.1671  -1.3935
N       1.5284  -0.1567  1.3901
C       -2.7957  0.4059  -0.6526
C       -2.7960  -0.4052  0.6559
C       2.7958  0.4059  -0.6527
C       2.7959  -0.4048  0.6561
H       -1.1867  0.9441  -1.9570
H       -2.8321  1.4655  -0.4539
H       -3.7455  0.1102  -1.1190
H       -3.7454  -0.1024  1.1225
H       -2.8328  -1.4647  0.4640
H       -1.4860  0.7440  1.8397
H       -1.2241  -0.8773  2.0272
H       1.5132  -0.6807  -1.9265
H       1.1869  0.9438  -1.9572
H       3.7454  0.1098  -1.1191
H       2.8322  1.4655  -0.4545
H       2.8331  -1.4644  0.4647
H       3.7454  -0.1015  1.1226
H       1.2241  -0.8765  2.0276
H       1.4857  0.7447  1.8393
H       -1.5132  -0.6804  -1.9269
