27

Co      -0.0250  -0.0488  -0.0034
Cl      0.0002  -2.3111  -0.2217
Cl      -0.0001  2.3785  0.2286
N       -1.5562  0.1255  -1.3765
N       -1.4777  -0.1156  1.2994
N       1.5187  0.1429  -1.4030
N       1.5971  -0.1325  1.4733
C       -2.8165  0.4369  -0.6294
C       -2.7677  -0.4215  0.6131
C       2.7675  0.4176  -0.6190
C       2.8167  -0.4312  0.6421
H       -1.3553  0.8568  -2.0345
H       -2.8106  1.4879  -0.3812
H       -3.6886  0.2292  -1.2343
H       -3.6002  -0.2312  1.2771
H       -2.7622  -1.4724  0.3569
H       -1.5250  0.7800  1.7473
H       -1.2946  -0.8097  2.0016
H       1.6076  -0.6939  -1.9585
H       1.3392  0.9118  -2.0144
H       3.6457  0.2304  -1.2282
H       2.7517  1.4649  -0.3648
H       2.8016  -1.4785  0.4093
H       3.7341  -0.2122  1.1925
H       1.4746  -0.8249  2.1878
H       1.6784  0.7727  1.9155
H       -1.6504  -0.7311  -1.8787
