27

Co      0.0490  0.0427  0.0422
Cl      -0.0063  -2.3139  -0.2213
Cl      -0.0067  2.2507  0.2106
N       -1.4567  0.1688  -1.2732
N       -1.3912  -0.1832  1.2397
N       1.4305  0.1720  -1.3287
N       1.3650  -0.1859  1.2953
C       -2.8365  0.3860  -0.6587
C       -2.7877  -0.3648  0.6185
C       2.7810  0.3794  -0.6686
C       2.7321  -0.3578  0.6285
H       -1.6652  0.7550  -2.2115
H       -2.8018  1.4514  -0.4703
H       -3.6649  0.1807  -1.3246
H       -3.5867  -0.2231  1.3463
H       -2.7247  -1.4262  0.3907
H       -1.5617  0.6925  1.7139
H       -1.5918  -0.8597  2.0790
H       1.5756  -0.7641  -1.7107
H       1.6261  0.7842  -2.2269
H       3.6321  0.1749  -1.3018
H       2.7365  1.4449  -0.4873
H       2.6596  -1.4193  0.4077
H       3.5585  -0.2169  1.3190
H       1.5480  -0.8884  2.0945
H       1.5366  0.6736  1.7986
H       -1.6050  -0.7855  -1.6261
