27

Co      0.0250  -0.0061  0.0389
Cl      0.0002  -2.2750  -0.2216
Cl      -0.0001  2.2792  0.2176
N       -1.4230  0.1384  -1.3612
N       -1.3575  -0.1426  1.3243
N       1.3820  0.1246  -1.2610
N       1.3165  -0.1284  1.2242
C       -2.7304  0.4078  -0.6663
C       -2.6816  -0.3867  0.6295
C       2.7305  0.4124  -0.6573
C       2.6816  -0.3908  0.6206
H       -1.4725  0.8520  -2.1068
H       -2.7285  1.4733  -0.4989
H       -3.5751  0.1623  -1.2877
H       -3.4970  -0.1980  1.3128
H       -2.6515  -1.4480  0.4294
H       -1.6615  0.6494  1.9319
H       -1.4362  -0.8893  2.0450
H       1.6725  -0.6994  -1.8105
H       1.3908  0.8198  -2.0205
H       3.5296  0.1664  -1.3334
H       2.7423  1.4779  -0.4859
H       2.6654  -1.4522  0.4164
H       3.4559  -0.2016  1.3540
H       1.3541  -0.8567  1.9588
H       1.6066  0.6729  1.8109
H       -1.7317  -0.6784  -1.9316
