27

Co      -0.0250  0.0000  0.0000
Cl      0.0002  -2.2946  -0.2123
Cl      -0.0001  2.2947  0.2124
N       -1.4880  0.1455  -1.2905
N       -1.4880  -0.1456  1.2904
N       1.5290  0.1591  -1.3906
N       1.5290  -0.1588  1.3906
C       -2.8590  0.4106  -0.5992
C       -2.8593  -0.4099  0.5991
C       2.8591  0.4060  -0.6084
C       2.8592  -0.4049  0.6085
H       -1.1647  0.8749  -1.9202
H       -2.9671  1.4644  -0.4034
H       -3.7561  0.0389  -1.1047
H       -3.7561  -0.0378  1.1048
H       -2.9678  -1.4637  0.4034
H       -1.4824  0.7382  1.7638
H       -1.1652  -0.8755  1.9198
H       1.5418  -0.7160  -1.8837
H       1.2469  0.9065  -2.0070
H       3.8016  0.0340  -1.0564
H       2.9564  1.4599  -0.4177
H       2.9573  -1.4588  0.4177
H       3.8015  -0.0324  1.0566
H       1.2470  -0.9066  2.0066
H       1.5413  0.7161  1.8841
H       -1.4827  -0.7385  -1.7635
