27

Co      0.0000  0.0000  0.0000
Cl      0.0002  -2.2843  -0.2195
Cl      -0.0001  2.2843  0.2196
N       -1.4094  0.1339  -1.3637
N       -1.4094  -0.1340  1.3636
N       1.4094  0.1338  -1.3636
N       1.4093  -0.1335  1.3636
C       -2.6966  0.4020  -0.6301
C       -2.6968  -0.4013  0.6300
C       2.6967  0.4020  -0.6302
C       2.6968  -0.4009  0.6303
H       -1.3876  0.8917  -2.0328
H       -2.7430  1.4519  -0.4034
H       -3.4467  0.1832  -1.3848
H       -3.4466  -0.1821  1.3850
H       -2.7437  -1.4512  0.4034
H       -1.5508  0.6969  1.9196
H       -1.3880  -0.8922  2.0324
H       1.5510  -0.6975  -1.9189
H       1.3878  0.8914  -2.0331
H       3.4466  0.1828  -1.3850
H       2.7432  1.4519  -0.4040
H       2.7440  -1.4508  0.4040
H       3.4466  -0.1812  1.3851
H       1.3879  -0.8914  2.0327
H       1.5505  0.6976  1.9193
H       -1.5511  -0.6973  -1.9193
