27

Co      0.0250  -0.0061  0.0389
Cl      0.0002  -2.2750  -0.2216
Cl      -0.0001  2.2792  0.2176
N       -1.3425  0.1709  -1.3501
N       -1.3556  -0.1751  1.3869
N       1.3800  0.1571  -1.3235
N       1.2360  -0.1609  1.2131
C       -2.7510  0.4001  -0.6820
C       -2.7513  -0.3937  0.6648
C       2.8002  0.4194  -0.6926
C       2.7022  -0.3831  0.6362
H       -1.5066  0.8057  -2.2135
H       -2.6432  1.4628  -0.4646
H       -3.5835  0.2712  -1.3705
H       -3.5937  -0.2971  1.3564
H       -2.6153  -1.4550  0.4295
H       -1.5350  0.7313  1.8168
H       -1.5685  -0.8234  2.2548
H       1.5460  -0.7812  -1.6954
H       1.5231  0.7539  -2.2259
H       3.6263  0.2700  -1.3769
H       2.7061  1.4849  -0.4859
H       2.5801  -1.4445  0.3821
H       3.4643  -0.3150  1.4368
H       1.3838  -0.8104  2.0612
H       1.3819  0.7400  1.6516
H       -1.5071  -0.7455  -1.7723
