27

Co      0.0250  0.0000  0.0000
Cl      0.0002  -2.2843  -0.2195
Cl      -0.0001  2.2843  0.2196
N       -1.4351  0.1765  -1.4226
N       -1.4351  -0.1766  1.4225
N       1.3942  0.1628  -1.3224
N       1.3941  -0.1625  1.3224
C       -2.6922  0.4135  -0.6487
C       -2.6924  -0.4127  0.6487
C       2.6922  0.4180  -0.6398
C       2.6924  -0.4169  0.6398
H       -1.3362  0.8315  -2.1846
H       -2.7659  1.4682  -0.4429
H       -3.5487  0.1168  -1.2355
H       -3.5487  -0.1157  1.2357
H       -2.7666  -1.4674  0.4429
H       -1.4855  0.7629  1.8090
H       -1.3366  -0.8320  2.1841
H       1.4266  -0.7863  -1.6877
H       1.2544  0.7993  -2.0939
H       3.5032  0.1254  -1.2812
H       2.7797  1.4727  -0.4298
H       2.7805  -1.4716  0.4299
H       3.5031  -0.1239  1.2814
H       1.2502  -0.7994  2.0936
H       1.4261  0.7864  1.6881
H       -1.4858  -0.7632  -1.8087
