27

Co      -0.0250  0.0000  0.0000
Cl      0.0002  -2.3018  -0.2123
Cl      -0.0001  2.3019  0.2124
N       -1.5678  0.1540  -1.3733
N       -1.4892  -0.1541  1.2995
N       1.5302  0.1676  -1.3997
N       1.6087  -0.1673  1.4734
C       -2.8559  0.4107  -0.6498
C       -2.8070  -0.3953  0.6302
C       2.8069  0.3914  -0.6394
C       2.8561  -0.4050  0.6591
H       -1.3909  0.8997  -2.0195
H       -2.9208  1.4654  -0.4517
H       -3.7019  0.1231  -1.2583
H       -3.6135  -0.1318  1.2977
H       -2.8724  -1.4500  0.4174
H       -1.5238  0.6865  1.8400
H       -1.2931  -0.9199  1.9160
H       1.5832  -0.6643  -1.9599
H       1.3748  0.9509  -2.0032
H       3.6591  0.1280  -1.2522
H       2.8582  1.4462  -0.4316
H       2.9081  -1.4598  0.4660
H       3.7474  -0.1166  1.2131
H       1.4732  -0.9313  2.1059
H       1.6809  0.6792  2.0045
H       -1.6223  -0.7016  -1.8838
