27

Co      0.0250  -0.0061  0.0389
Cl      0.0002  -2.2750  -0.2216
Cl      -0.0001  2.2792  0.2176
N       -1.4123  0.1470  -1.3129
N       -1.4254  -0.1512  1.3497
N       1.4499  0.1332  -1.2863
N       1.3058  -0.1370  1.1759
C       -2.6830  0.4005  -0.7023
C       -2.6833  -0.3941  0.6851
C       2.7322  0.4197  -0.7129
C       2.6342  -0.3834  0.6566
H       -1.4263  0.8675  -2.0381
H       -2.6353  1.4717  -0.5275
H       -3.5081  0.2272  -1.3760
H       -3.5183  -0.2531  1.3618
H       -2.6074  -1.4611  0.4924
H       -1.7020  0.6510  1.9368
H       -1.4881  -0.8852  2.0793
H       1.7131  -0.7010  -1.8155
H       1.4427  0.8157  -2.0549
H       3.5509  0.2216  -1.3852
H       2.6953  1.4910  -0.5489
H       2.5694  -1.4506  0.4450
H       3.3888  -0.2666  1.4451
H       1.3079  -0.8722  1.8901
H       1.5489  0.6598  1.7717
H       -1.6741  -0.6653  -1.8923
