27

Co      0.0000  0.0000  0.0000
Cl      0.0002  -2.2984  -0.2198
Cl      -0.0001  2.2985  0.2199
N       -1.5826  0.1221  -1.3389
N       -1.5826  -0.1222  1.3388
N       1.5826  0.1258  -1.3389
N       1.5826  -0.1255  1.3389
C       -2.8149  0.4736  -0.6170
C       -2.8151  -0.4729  0.6169
C       2.8150  0.4736  -0.6171
C       2.8151  -0.4725  0.6172
H       -1.0829  0.8219  -1.9420
H       -2.9869  1.5159  -0.3724
H       -3.6281  0.1161  -1.2395
H       -3.6326  -0.1150  1.2352
H       -2.9875  -1.5151  0.3724
H       -1.5335  0.8005  1.7503
H       -1.0833  -0.8224  1.9415
H       1.5255  -0.8011  -1.7533
H       1.0831  0.8253  -1.9384
H       3.6281  0.1120  -1.2397
H       2.9907  1.5121  -0.3767
H       2.9916  -1.5110  0.3768
H       3.6280  -0.1104  1.2398
H       1.0832  -0.8254  1.9381
H       1.5250  0.8012  1.7537
H       -1.5293  -0.8008  -1.7500
