27

Co      0.0000  -0.0488  -0.0034
Cl      0.0002  -2.2647  -0.2164
Cl      -0.0001  2.3321  0.2232
N       -1.5462  0.1311  -1.3270
N       -1.5462  -0.1212  1.3236
N       1.5462  0.1348  -1.3270
N       1.5461  -0.1244  1.3236
C       -2.8324  0.4297  -0.6193
C       -2.8326  -0.4290  0.6227
C       2.8325  0.4297  -0.6195
C       2.8326  -0.4286  0.6229
H       -1.3505  0.8688  -1.9802
H       -2.8387  1.4806  -0.3678
H       -3.6777  0.2217  -1.2611
H       -3.6777  -0.2139  1.2646
H       -2.8394  -1.4799  0.3779
H       -1.6077  0.7850  1.7555
H       -1.3880  -0.8020  2.0504
H       1.6311  -0.7217  -1.8461
H       1.3507  0.8722  -1.9767
H       3.6777  0.2176  -1.2612
H       2.8426  1.4769  -0.3722
H       2.8434  -1.4758  0.3823
H       3.6776  -0.2093  1.2647
H       1.3879  -0.8050  2.0470
H       1.6037  0.7857  1.7589
H       -1.6349  -0.7214  -1.8427
