27

Co      0.0000  0.0000  0.0000
Cl      0.0002  -2.2771  -0.2195
Cl      -0.0001  2.2771  0.2196
N       -1.3513  0.1356  -1.3096
N       -1.3513  -0.1357  1.3095
N       1.3513  0.1355  -1.3095
N       1.3513  -0.1353  1.3096
C       -2.7425  0.4301  -0.6784
C       -2.7427  -0.4294  0.6784
C       2.7426  0.4301  -0.6785
C       2.7427  -0.4290  0.6786
H       -1.2113  0.8335  -2.0255
H       -2.6763  1.4955  -0.4852
H       -3.6266  0.2291  -1.2658
H       -3.6221  -0.2280  1.2705
H       -2.6770  -1.4976  0.4852
H       -1.5638  0.7078  1.8352
H       -1.2118  -0.8340  2.0250
H       1.5685  -0.7084  -1.8345
H       1.2115  0.8332  -2.0257
H       3.6266  0.2287  -1.2659
H       2.6764  1.4984  -0.4858
H       2.6773  -1.4973  0.4859
H       3.6265  -0.2271  1.2661
H       1.2117  -0.8332  2.0254
H       1.5680  0.7085  1.8349
H       -1.5685  -0.7081  -1.8349
