27

Co      0.0000  0.0000  0.0000
Cl      0.0002  -2.2966  -0.2159
Cl      -0.0001  2.2967  0.2160
N       -1.4992  0.1212  -1.3950
N       -1.4992  -0.1213  1.3949
N       1.4992  0.1211  -1.3949
N       1.4992  -0.1208  1.3949
C       -2.7660  0.3939  -0.6401
C       -2.7662  -0.3932  0.6401
C       2.7661  0.3939  -0.6402
C       2.7662  -0.3928  0.6403
H       -1.2737  0.9797  -1.8975
H       -2.7563  1.4486  -0.4212
H       -3.6406  0.1846  -1.2369
H       -3.6405  -0.1835  1.2371
H       -2.7570  -1.4479  0.4212
H       -1.5756  0.6415  2.0640
H       -1.2741  -0.9802  1.8970
H       1.5758  -0.6421  -2.0632
H       1.2739  0.9794  -1.9021
H       3.6405  0.1798  -1.2371
H       2.7564  1.4486  -0.4218
H       2.7573  -1.4475  0.4218
H       3.6405  -0.1782  1.2372
H       1.2784  -0.9794  1.9018
H       1.5753  0.6422  2.0636
H       -1.5758  -0.6419  -2.0636
