27

Co      0.0000  0.0000  0.0000
Cl      0.0002  -2.2451  -0.2142
Cl      -0.0001  2.2451  0.2143
N       -1.4212  0.1394  -1.3752
N       -1.4212  -0.1396  1.3751
N       1.4212  0.1394  -1.3752
N       1.4212  -0.1391  1.3752
C       -2.7688  0.4322  -0.6651
C       -2.7691  -0.4315  0.6651
C       2.7689  0.4322  -0.6652
C       2.7691  -0.4311  0.6653
H       -1.2179  0.8760  -2.0201
H       -2.7656  1.4841  -0.4330
H       -3.5898  0.2240  -1.3335
H       -3.5898  -0.2229  1.3336
H       -2.7663  -1.4862  0.4330
H       -1.4802  0.7243  1.8808
H       -1.2183  -0.8766  2.0197
H       1.4804  -0.7249  -1.8801
H       1.2181  0.8757  -2.0204
H       3.5898  0.2236  -1.3336
H       2.7657  1.4869  -0.4336
H       2.7666  -1.4858  0.4337
H       3.5897  -0.2220  1.3338
H       1.2182  -0.8758  2.0200
H       1.4799  0.7250  1.8805
H       -1.4804  -0.7246  -1.8805
