27

Co      0.0000  -0.0488  -0.0034
Cl      0.0002  -2.2203  -0.2147
Cl      -0.0001  2.2877  0.2215
N       -1.5782  0.1292  -1.3357
N       -1.5782  -0.1192  1.3322
N       1.5782  0.1328  -1.3356
N       1.5782  -0.1224  1.3322
C       -2.7571  0.4154  -0.5856
C       -2.7573  -0.4147  0.5890
C       2.7572  0.4154  -0.5857
C       2.7573  -0.4143  0.5892
H       -1.1832  0.8816  -1.9120
H       -2.8470  1.4605  -0.3149
H       -3.6446  0.1362  -1.1343
H       -3.6491  -0.1284  1.1333
H       -2.8477  -1.4569  0.3250
H       -1.4041  0.8438  1.6894
H       -1.2207  -0.8148  1.9822
H       1.4231  -0.7805  -1.7799
H       1.1834  0.8850  -1.9085
H       3.6446  0.1321  -1.1344
H       2.8509  1.4539  -0.3192
H       2.8517  -1.4528  0.3294
H       3.6445  -0.1238  1.1379
H       1.2206  -0.8178  1.9789
H       1.3956  0.8445  1.6928
H       -1.4268  -0.7802  -1.7766
