27

Co      -0.0250  0.0061  -0.0389
Cl      0.0002  -2.2632  -0.2160
Cl      -0.0001  2.2592  0.2202
N       -1.5013  0.1124  -1.3745
N       -1.4882  -0.1084  1.3376
N       1.4637  0.1297  -1.4010
N       1.6076  -0.1253  1.5114
C       -2.8164  0.4284  -0.5669
C       -2.8166  -0.4334  0.5841
C       2.7673  0.4091  -0.5565
C       2.8657  -0.4432  0.6130
H       -1.3607  0.8344  -2.0647
H       -2.8371  1.4716  -0.3024
H       -3.6811  0.1925  -1.1709
H       -3.6664  -0.1644  1.1899
H       -2.8663  -1.4807  0.3375
H       -1.5913  0.7695  1.8132
H       -1.2998  -0.8177  2.0224
H       1.5815  -0.7208  -1.9369
H       1.3447  0.8893  -2.0445
H       3.6383  0.1936  -1.1619
H       2.7810  1.4486  -0.2860
H       2.9087  -1.4868  0.3900
H       3.8002  -0.1454  1.1024
H       1.4798  -0.8329  2.2086
H       1.7446  0.7622  1.9814
H       -1.6243  -0.7560  -1.8571
