27

Co      -0.0250  -0.0488  -0.0034
Cl      0.0002  -2.2630  -0.2125
Cl      -0.0001  2.3303  0.2194
N       -1.4743  0.1504  -1.3554
N       -1.4743  -0.1404  1.3520
N       1.5153  0.1640  -1.4555
N       1.5152  -0.1536  1.4522
C       -2.7616  0.4051  -0.6383
C       -2.7618  -0.4043  0.6417
C       2.7617  0.4005  -0.6475
C       2.7618  -0.3994  0.6510
H       -1.2673  0.9310  -1.9517
H       -2.8074  1.4598  -0.4226
H       -3.6001  0.1504  -1.2624
H       -3.6001  -0.1425  1.2660
H       -2.8081  -1.4590  0.4327
H       -1.5104  0.7380  1.8304
H       -1.3048  -0.8642  2.0219
H       1.5967  -0.6519  -2.0378
H       1.3494  0.9626  -2.0384
H       3.6456  0.1454  -1.2171
H       2.7939  1.4552  -0.4369
H       2.7947  -1.4541  0.4470
H       3.6455  -0.1371  1.2206
H       1.3866  -0.8953  2.1087
H       1.5693  0.7159  1.9507
H       -1.5376  -0.6744  -1.9176
