27

Co      -0.0250  0.0000  0.0000
Cl      0.0002  -2.3338  -0.2176
Cl      -0.0001  2.3339  0.2177
N       -1.5159  0.1457  -1.3212
N       -1.4374  -0.1458  1.2475
N       1.4784  0.1593  -1.3476
N       1.5569  -0.1590  1.4213
C       -2.8251  0.4131  -0.6450
C       -2.7762  -0.3977  0.6254
C       2.7760  0.3938  -0.6346
C       2.8253  -0.4074  0.6543
H       -1.3301  0.8752  -1.9842
H       -2.8948  1.4678  -0.4451
H       -3.6484  0.1237  -1.2811
H       -3.5600  -0.1324  1.3205
H       -2.8464  -1.4524  0.4108
H       -1.4672  0.7062  1.7718
H       -1.2323  -0.8954  1.8807
H       1.5266  -0.6840  -1.8917
H       1.3141  0.9264  -1.9679
H       3.6055  0.1285  -1.2749
H       2.8322  1.4485  -0.4251
H       2.8821  -1.4622  0.4595
H       3.6938  -0.1171  1.2358
H       1.4124  -0.9068  2.0706
H       1.6243  0.6989  1.9362
H       -1.5657  -0.7213  -1.8156
