27

Co      0.0000  0.0488  0.0034
Cl      0.0002  -2.2787  -0.2176
Cl      -0.0001  2.2115  0.2109
N       -1.4780  0.1458  -1.3452
N       -1.4780  -0.1560  1.3485
N       1.4780  0.1457  -1.3452
N       1.4779  -0.1555  1.3485
C       -2.7093  0.4069  -0.6872
C       -2.7096  -0.4062  0.6838
C       2.7094  0.4068  -0.6873
C       2.7096  -0.4057  0.6841
H       -1.2956  0.8594  -2.0214
H       -2.7026  1.4673  -0.4754
H       -3.5528  0.2103  -1.3278
H       -3.5528  -0.2159  1.3246
H       -2.7033  -1.4666  0.4653
H       -1.5132  0.6781  1.8990
H       -1.2590  -0.9272  1.9503
H       1.4865  -0.7427  -1.8107
H       1.2957  0.8591  -2.0217
H       3.5528  0.2099  -1.3308
H       2.6998  1.4673  -0.4760
H       2.7007  -1.4662  0.4659
H       3.5527  -0.2151  1.3276
H       1.2589  -0.9265  1.9506
H       1.5130  0.6788  1.8986
H       -1.4866  -0.7424  -1.8111
