27

Co      -0.0741  -0.0488  -0.0034
Cl      0.0068  -2.2667  -0.2200
Cl      0.0064  2.3341  0.2269
N       -1.5262  0.1203  -1.3761
N       -1.5262  -0.1104  1.3727
N       1.5934  0.1344  -1.4206
N       1.5933  -0.1240  1.4173
C       -2.6889  0.4072  -0.5811
C       -2.6891  -0.4065  0.5844
C       2.7446  0.4091  -0.5805
C       2.7447  -0.4080  0.5839
H       -1.2647  0.9039  -1.9488
H       -2.7762  1.4474  -0.2998
H       -3.4980  0.1680  -1.2467
H       -3.5025  -0.1601  1.2457
H       -2.7769  -1.4439  0.3099
H       -1.4286  0.8121  1.7894
H       -1.3022  -0.8371  2.0191
H       1.5361  -0.7456  -1.9156
H       1.3861  0.9098  -2.0122
H       3.5762  0.1691  -1.2242
H       2.8318  1.4428  -0.3015
H       2.8326  -1.4417  0.3116
H       3.5761  -0.1608  1.2277
H       1.4233  -0.8425  2.0826
H       1.5087  0.8097  1.8284
H       -1.4513  -0.7485  -1.8766
