27

Co      -0.0741  0.0000  0.0000
Cl      0.0068  -2.3410  -0.2176
Cl      0.0064  2.3411  0.2177
N       -1.5706  0.1504  -1.4031
N       -1.4921  -0.1505  1.3293
N       1.5592  0.1607  -1.3739
N       1.6377  -0.1604  1.4476
C       -2.7513  0.3866  -0.6113
C       -2.7025  -0.3712  0.5916
C       2.7579  0.3738  -0.5911
C       2.8072  -0.3875  0.6108
H       -1.3413  0.9384  -1.9771
H       -2.9143  1.4306  -0.3909
H       -3.5490  0.0486  -1.2577
H       -3.4651  -0.0573  1.2926
H       -2.8659  -1.4123  0.3565
H       -1.3668  0.7097  1.8550
H       -1.2435  -0.9586  1.8735
H       1.4511  -0.7072  -1.8899
H       1.3644  0.9602  -1.9411
H       3.5388  0.0633  -1.2745
H       2.9170  1.4150  -0.3544
H       2.9670  -1.4287  0.3888
H       3.6272  -0.0519  1.2353
H       1.4628  -0.9406  2.0439
H       1.5488  0.7220  1.9345
H       -1.4607  -0.7248  -1.8988
