27

Co      0.0000  0.0000  0.0000
Cl      0.0002  -2.2984  -0.2198
Cl      -0.0001  2.2985  0.2199
N       -1.5559  0.1309  -1.3254
N       -1.5559  -0.1311  1.3253
N       1.5559  0.1346  -1.3253
N       1.5558  -0.1343  1.3253
C       -2.8324  0.4345  -0.6307
C       -2.8326  -0.4338  0.6307
C       2.8325  0.4345  -0.6309
C       2.8326  -0.4334  0.6309
H       -1.2235  0.8254  -1.9913
H       -2.8242  1.4903  -0.3923
H       -3.7747  0.1941  -1.1318
H       -3.7747  -0.1930  1.1320
H       -2.8248  -1.4896  0.3923
H       -1.5484  0.7773  1.7556
H       -1.2240  -0.8260  1.9908
H       1.5449  -0.7779  -1.7587
H       1.2237  0.8289  -1.9878
H       3.7747  0.1900  -1.1320
H       2.8280  1.4866  -0.3966
H       2.8289  -1.4855  0.3967
H       3.7746  -0.1884  1.1321
H       1.2239  -0.8289  1.9874
H       1.5444  0.7780  1.7591
H       -1.5487  -0.7776  -1.7553
