27

Co      0.0000  -0.0427  -0.0422
Cl      0.0002  -2.2186  -0.2052
Cl      -0.0001  2.2819  0.2161
N       -1.4815  0.1495  -1.3726
N       -1.4684  -0.1354  1.3323
N       1.4030  0.1494  -1.2989
N       1.5469  -0.1349  1.4060
C       -2.8249  0.4023  -0.5837
C       -2.8251  -0.4073  0.6043
C       2.7759  0.3875  -0.5642
C       2.8742  -0.4216  0.6241
H       -1.3395  0.9360  -1.9869
H       -2.9144  1.4492  -0.3630
H       -3.6636  0.0914  -1.1915
H       -3.6489  -0.0566  1.2138
H       -2.9437  -1.4583  0.4083
H       -1.5361  0.7483  1.8116
H       -1.3155  -0.8520  2.0154
H       1.4979  -0.6584  -1.8984
H       1.2415  0.9553  -1.8841
H       3.5752  0.1008  -1.2281
H       2.8683  1.4345  -0.3293
H       2.9959  -1.4727  0.4433
H       3.7372  -0.0459  1.1719
H       1.4136  -0.8316  2.1189
H       1.6341  0.7637  1.8554
H       -1.5961  -0.6708  -1.9430
