27

Co      0.0000  0.0000  0.0000
Cl      0.0002  -2.2612  -0.2181
Cl      -0.0001  2.2612  0.2182
N       -1.5987  0.1197  -1.3914
N       -1.5987  -0.1199  1.3913
N       1.5987  0.1234  -1.3913
N       1.5987  -0.1231  1.3913
C       -2.7394  0.4427  -0.5867
C       -2.7396  -0.4420  0.5867
C       2.7394  0.4427  -0.5868
C       2.7396  -0.4416  0.5869
H       -1.2895  0.8552  -2.0036
H       -2.9442  1.4830  -0.3442
H       -3.5130  0.0884  -1.2579
H       -3.5175  -0.0873  1.2535
H       -2.9449  -1.4794  0.3442
H       -1.6420  0.7602  1.8658
H       -1.2899  -0.8557  2.0032
H       1.6340  -0.7609  -1.8689
H       1.2897  0.8586  -2.0001
H       3.5129  0.0843  -1.2580
H       2.9481  1.4764  -0.3486
H       2.9489  -1.4753  0.3486
H       3.5129  -0.0827  1.2582
H       1.2898  -0.8587  1.9998
H       1.6334  0.7610  1.8692
H       -1.6377  -0.7606  -1.8655
