27

Co      0.0000  0.0000  0.0000
Cl      0.0002  -2.3004  -0.2234
Cl      -0.0001  2.3004  0.2235
N       -1.5728  0.0852  -1.3879
N       -1.5728  -0.0853  1.3878
N       1.5729  0.0889  -1.3878
N       1.5728  -0.0886  1.3878
C       -2.7082  0.4339  -0.5823
C       -2.7084  -0.4332  0.5823
C       2.7082  0.4339  -0.5824
C       2.7084  -0.4328  0.5825
H       -1.2043  0.9162  -1.8762
H       -2.8572  1.4741  -0.3291
H       -3.4986  0.1336  -1.2499
H       -3.5031  -0.1325  1.2455
H       -2.8579  -1.4706  0.3291
H       -1.6338  0.7125  1.9977
H       -1.2047  -0.9168  1.8757
H       1.6258  -0.7131  -2.0008
H       1.2045  0.9197  -1.8771
H       3.4986  0.1250  -1.2500
H       2.8611  1.4676  -0.3335
H       2.8619  -1.4665  0.3335
H       3.4985  -0.1235  1.2502
H       1.2091  -0.9197  1.8768
H       1.6253  0.7132  2.0011
H       -1.6296  -0.7128  -1.9974
