27

Co      -0.0250  0.0000  0.0000
Cl      0.0002  -2.2966  -0.2159
Cl      -0.0001  2.2967  0.2160
N       -1.5695  0.1485  -1.3872
N       -1.4910  -0.1486  1.3135
N       1.5320  0.1621  -1.4137
N       1.6105  -0.1618  1.4873
C       -2.7450  0.3964  -0.6161
C       -2.6961  -0.3810  0.5964
C       2.6960  0.3771  -0.6057
C       2.7452  -0.3908  0.6254
H       -1.1915  0.9072  -1.9567
H       -2.8864  1.4452  -0.3970
H       -3.6368  0.0429  -1.1280
H       -3.5529  -0.0516  1.1628
H       -2.8379  -1.4270  0.3626
H       -1.2900  0.7506  1.7774
H       -1.0937  -0.9274  1.8531
H       1.3449  -0.7285  -1.8973
H       1.1754  0.9584  -1.9403
H       3.5939  0.0478  -1.1218
H       2.8237  1.4232  -0.3769
H       2.8736  -1.4368  0.4113
H       3.6822  -0.0364  1.0827
H       1.2738  -0.9388  2.0431
H       1.4426  0.7433  1.9419
H       -1.3839  -0.7657  -1.8212
