27

Co      0.0000  0.0000  0.0000
Cl      0.0002  -2.2503  -0.2106
Cl      -0.0001  2.2503  0.2107
N       -1.5317  0.1538  -1.3242
N       -1.5317  -0.1539  1.3241
N       1.5317  0.1537  -1.3241
N       1.5317  -0.1534  1.3241
C       -2.7654  0.3798  -0.6144
C       -2.7656  -0.3791  0.6144
C       2.7655  0.3798  -0.6145
C       2.7656  -0.3787  0.6146
H       -1.3865  0.9107  -1.9673
H       -2.8657  1.4373  -0.4230
H       -3.6193  0.0642  -1.1952
H       -3.6193  -0.0631  1.1954
H       -2.8664  -1.4338  0.4230
H       -1.5856  0.6952  1.8518
H       -1.3869  -0.9113  1.9669
H       1.5858  -0.6958  -1.8511
H       1.3867  0.9104  -1.9676
H       3.6193  0.0638  -1.1954
H       2.8658  1.4345  -0.4236
H       2.8667  -1.4334  0.4237
H       3.6192  -0.0622  1.1955
H       1.3868  -0.9105  1.9672
H       1.5853  0.6959  1.8515
H       -1.5858  -0.6956  -1.8515
