27

Co      0.0250  -0.0061  0.0389
Cl      0.0002  -2.2822  -0.2216
Cl      -0.0001  2.2864  0.2176
N       -1.4519  0.1472  -1.3839
N       -1.4650  -0.1514  1.4206
N       1.4895  0.1335  -1.3573
N       1.3455  -0.1373  1.2469
C       -2.6737  0.4026  -0.6890
C       -2.6740  -0.3962  0.6718
C       2.7229  0.4219  -0.6996
C       2.6249  -0.3856  0.6433
H       -1.4007  0.9047  -2.0380
H       -2.6819  1.4602  -0.4735
H       -3.4392  0.2275  -1.4401
H       -3.4539  -0.2534  1.4214
H       -2.6539  -1.4497  0.4384
H       -1.5882  0.6729  1.9860
H       -1.4626  -0.9224  2.0793
H       1.5947  -0.7228  -1.8646
H       1.4172  0.8529  -2.0549
H       3.4820  0.2218  -1.4494
H       2.7419  1.4795  -0.4949
H       2.6159  -1.4392  0.3910
H       3.3199  -0.2669  1.5092
H       1.2823  -0.9094  1.8901
H       1.4306  0.6816  1.8208
H       -1.5557  -0.6871  -1.9415
