27

Co      0.0250  -0.0061  0.0389
Cl      0.0002  -2.3194  -0.2233
Cl      -0.0001  2.3236  0.2193
N       -1.4212  0.1700  -1.3348
N       -1.4344  -0.1742  1.3716
N       1.4588  0.1562  -1.3083
N       1.3148  -0.1600  1.1978
C       -2.7311  0.4121  -0.6428
C       -2.7313  -0.4057  0.6257
C       2.7803  0.4314  -0.6535
C       2.6822  -0.3951  0.5971
H       -1.4462  0.8203  -2.1337
H       -2.8576  1.4640  -0.4414
H       -3.4484  0.1091  -1.4125
H       -3.4631  -0.1350  1.3938
H       -2.8297  -1.4535  0.4062
H       -1.5671  0.7392  1.7945
H       -1.5080  -0.8380  2.1749
H       1.5736  -0.7892  -1.6731
H       1.4626  0.7685  -2.1461
H       3.4912  0.1079  -1.4188
H       2.9205  1.4833  -0.4627
H       2.7945  -1.4430  0.3589
H       3.3292  -0.1530  1.4787
H       1.3234  -0.8250  1.9813
H       1.4095  0.7480  1.6293
H       -1.5346  -0.7535  -1.7500
