27

Co      -0.0250  -0.0488  -0.0034
Cl      0.0002  -2.2238  -0.2072
Cl      -0.0001  2.2912  0.2140
N       -1.5046  0.1540  -1.3501
N       -1.5046  -0.1440  1.3466
N       1.5456  0.1675  -1.4502
N       1.5455  -0.1571  1.4468
C       -2.7972  0.4051  -0.6383
C       -2.7974  -0.4043  0.6417
C       2.7973  0.4005  -0.6475
C       2.7974  -0.3994  0.6510
H       -1.2994  0.9363  -1.9463
H       -2.8502  1.4598  -0.4243
H       -3.6322  0.1450  -1.2660
H       -3.6321  -0.1372  1.2695
H       -2.8508  -1.4590  0.4345
H       -1.5407  0.7326  1.8268
H       -1.3368  -0.8696  2.0165
H       1.6270  -0.6465  -2.0343
H       1.3815  0.9679  -2.0330
H       3.6776  0.1401  -1.2206
H       2.8366  1.4552  -0.4386
H       2.8375  -1.4541  0.4488
H       3.6776  -0.1318  1.2241
H       1.4187  -0.9006  2.1034
H       1.5996  0.7106  1.9471
H       -1.5679  -0.6690  -1.9140
