27

Co      0.0018  0.0293  0.0052
Cl      -1.0528  1.5680  -1.2022
Cl      1.1280  1.4086  1.3351
C       2.5923  -0.7189  -0.8151
C       2.0914  -1.8659  -0.0531
C       -2.4627  -1.3320  -0.4512
C       -2.4354  -1.1304  1.0668
N       1.4824  0.0750  -1.3253
N       1.0138  -1.4942  0.7566
N       -1.0812  -1.2670  -0.9984
N       -1.4374  -0.0648  1.3833
H       3.0018  -2.3252  0.3453
H       1.6517  -2.5783  -0.7288
H       -2.9340  -0.5166  -0.9805
H       -3.0480  -2.2372  -0.5954
H       1.8293  1.0118  -1.5290
H       1.4041  -0.3057  -2.2768
H       -1.9360  0.8167  1.4404
H       -1.1273  -0.2173  2.3302
H       -2.1030  -1.9987  1.6377
H       -3.4662  -0.9233  1.3641
H       0.5238  -2.3368  1.0103
H       1.5065  -1.2658  1.6285
H       3.2736  -1.2698  -1.5060
H       3.1648  -0.0015  -0.2420
H       -0.8011  -2.2279  -1.0222
H       -1.2058  -1.0326  -1.9740
