27

Co      -0.0022  -0.0204  -0.0198
Cl      -1.1120  1.6415  -1.2183
Cl      1.2275  1.5473  1.4392
C       2.7015  -0.7429  -0.8304
C       2.1851  -1.9666  -0.1070
C       -2.6193  -1.3224  -0.4431
C       -2.4421  -1.1989  1.0554
N       1.5206  0.0536  -1.2921
N       1.0966  -1.5129  0.8247
N       -1.2322  -1.3820  -1.0227
N       -1.5131  -0.0565  1.2779
H       2.9751  -2.4616  0.4483
H       1.7684  -2.6840  -0.7990
H       -3.1080  -0.4508  -0.8485
H       -3.1888  -2.1986  -0.7247
H       1.7591  1.0344  -1.3317
H       1.2498  -0.1991  -2.2179
H       -1.9830  0.8191  1.1224
H       -1.1762  -0.0252  2.2268
H       -1.9969  -2.0908  1.4732
H       -3.3850  -1.0392  1.5538
H       0.5757  -2.3027  1.1536
H       1.5106  -1.0750  1.6280
H       3.3366  -1.0087  -1.6580
H       3.2701  -0.1157  -0.1579
H       -0.8914  -2.3294  -0.9953
H       -1.2723  -1.1123  -1.9905
