27

Co      0.0051  0.0622  0.0214
Cl      -1.0779  1.5910  -1.2215
Cl      1.1096  1.3668  1.2941
C       2.6638  -0.7283  -0.8712
C       2.1791  -1.9582  -0.0512
C       -2.5139  -1.3395  -0.4584
C       -2.4360  -1.1346  1.0662
N       1.4803  0.1075  -1.2536
N       1.0491  -1.5205  0.8371
N       -1.1191  -1.2727  -1.0160
N       -1.4366  -0.0554  1.3634
H       3.0859  -2.3886  0.3802
H       1.7141  -2.7104  -0.6747
H       -3.0038  -0.5375  -0.9985
H       -3.0847  -2.2613  -0.5784
H       1.8210  1.0525  -1.3982
H       1.3505  -0.1991  -2.2137
H       -1.9523  0.8184  1.4041
H       -1.1336  -0.1855  2.3160
H       -2.0605  -2.0054  1.5966
H       -3.4427  -0.9483  1.4266
H       0.5604  -2.3491  1.1375
H       1.5847  -1.2714  1.6773
H       3.3292  -1.1528  -1.6261
H       3.2303  -0.0379  -0.2609
H       -0.8394  -2.2342  -1.0501
H       -1.2400  -1.0199  -1.9860
