27

Co      -0.0053  -0.0209  -0.0053
Cl      -1.1323  1.6789  -1.2448
Cl      1.2072  1.5161  1.4096
C       2.7843  -0.7257  -0.8472
C       2.2401  -2.0703  -0.0782
C       -2.6230  -1.3399  -0.4726
C       -2.4530  -1.2208  1.0821
N       1.4773  0.0974  -1.2987
N       1.0841  -1.5216  0.8537
N       -1.1989  -1.3673  -1.0085
N       -1.4955  -0.0243  1.3046
H       2.9400  -2.6843  0.4930
H       1.7585  -2.7003  -0.8228
H       -3.0535  -0.4044  -0.8308
H       -3.2175  -2.1700  -0.8576
H       1.6689  1.0897  -1.3297
H       1.2076  -0.1566  -2.2278
H       -1.9787  0.8480  1.1660
H       -1.1319  0.0087  2.2474
H       -2.0106  -2.0966  1.5365
H       -3.3906  -1.0286  1.5811
H       0.5033  -2.2606  1.2154
H       1.5117  -1.0689  1.6446
H       3.3689  -0.9282  -1.7396
H       3.3577  -0.0695  -0.2018
H       -0.8207  -2.3011  -0.9596
H       -1.1986  -1.0932  -1.9754
