27

Co      -0.0258  -0.0442  0.0183
Cl      -1.0902  1.6180  -1.2173
Cl      1.1590  1.4499  1.3641
C       2.7168  -0.7027  -0.8074
C       2.1273  -1.9374  -0.0645
C       -2.5506  -1.3224  -0.4704
C       -2.4250  -1.1874  1.0664
N       1.5021  0.0961  -1.3846
N       1.0430  -1.4594  0.8055
N       -1.1145  -1.2206  -0.9208
N       -1.4271  -0.0369  1.2690
H       2.8223  -2.6031  0.4531
H       1.6426  -2.5214  -0.8552
H       -3.0458  -0.4402  -0.8429
H       -3.0377  -2.2057  -0.8767
H       1.6931  1.0823  -1.4298
H       1.2950  -0.2008  -2.3197
H       -1.8829  0.8535  1.1607
H       -1.0520  -0.0263  2.1981
H       -2.0369  -2.0714  1.5611
H       -3.3634  -0.9317  1.5404
H       0.4924  -2.2231  1.1443
H       1.4476  -1.0163  1.6130
H       3.2894  -1.0915  -1.6448
H       3.3396  -0.0308  -0.2297
H       -0.6834  -2.1284  -0.8703
H       -1.0862  -0.9307  -1.8808
