27

Co      0.0693  0.0288  0.0088
Cl      -1.0783  1.5968  -1.2170
Cl      1.1215  1.3861  1.3340
C       2.5819  -0.6976  -0.7363
C       2.0437  -1.8609  -0.1116
C       -2.4883  -1.3278  -0.4318
C       -2.4614  -1.1521  1.0688
N       1.4699  0.0165  -1.3340
N       1.0850  -1.4153  0.7757
N       -1.1189  -1.3150  -1.0295
N       -1.5013  -0.0739  1.4034
H       2.8254  -2.4420  0.3511
H       1.5830  -2.4841  -0.8677
H       -3.0074  -0.4906  -0.8559
H       -3.0179  -2.2231  -0.7039
H       1.7205  0.9670  -1.6059
H       1.1691  -0.4527  -2.1891
H       -1.9273  0.8334  1.3330
H       -1.1711  -0.1585  2.3448
H       -2.1619  -2.0573  1.5919
H       -3.4706  -0.9118  1.3978
H       0.5023  -2.1778  1.0632
H       1.5065  -1.0371  1.6001
H       3.2666  -1.0480  -1.4921
H       3.1173  -0.0539  -0.0667
H       -0.7715  -2.2490  -1.0916
H       -1.2092  -0.9644  -1.9654
