27

Co      -0.0609  0.0123  -0.0176
Cl      -1.0647  1.5823  -1.2007
Cl      1.2011  1.5038  1.4147
C       2.6943  -0.7201  -0.8222
C       2.1443  -1.9418  -0.1073
C       -2.5547  -1.3577  -0.4512
C       -2.4456  -1.1449  1.0468
N       1.5388  0.0531  -1.3750
N       1.0728  -1.5264  0.8581
N       -1.1653  -1.2799  -1.0062
N       -1.4331  -0.0838  1.3169
H       2.9333  -2.4768  0.4066
H       1.7015  -2.6235  -0.8164
H       -3.1480  -0.5821  -0.9239
H       -3.0014  -2.3188  -0.6825
H       1.7673  1.0297  -1.4359
H       1.3054  -0.2410  -2.3018
H       -1.8594  0.8324  1.3398
H       -1.0090  -0.2069  2.2236
H       -2.1109  -2.0541  1.5293
H       -3.3987  -0.8825  1.4808
H       0.5904  -2.3375  1.1915
H       1.4949  -1.0842  1.6554
H       3.3824  -1.0199  -1.5990
H       3.2200  -0.0777  -0.1361
H       -0.7466  -2.1934  -0.9974
H       -1.2121  -0.9811  -1.9596
