27

Co      -0.0562  -0.0403  -0.0285
Cl      -1.0784  1.6021  -1.2053
Cl      1.1687  1.4578  1.3760
C       2.6913  -0.7084  -0.7892
C       2.1489  -1.9736  -0.0600
C       -2.5231  -1.3082  -0.4579
C       -2.4362  -1.1922  1.0830
N       1.4793  0.1070  -1.3649
N       1.0851  -1.5044  0.8308
N       -1.0804  -1.1634  -0.8954
N       -1.4420  -0.0376  1.2804
H       2.8810  -2.6104  0.4346
H       1.6722  -2.5720  -0.8384
H       -3.0301  -0.4276  -0.8238
H       -2.9795  -2.1974  -0.8997
H       1.6868  1.0952  -1.3515
H       1.3103  -0.1372  -2.3282
H       -1.9040  0.8526  1.2021
H       -1.0258  -0.0393  2.1938
H       -2.0564  -2.0743  1.5878
H       -3.3867  -0.9341  1.5328
H       0.5859  -2.2701  1.2469
H       1.5035  -0.9837  1.5925
H       3.2762  -1.0550  -1.6304
H       3.2938  -0.0425  -0.1914
H       -0.6092  -2.0572  -0.8029
H       -1.0643  -0.9159  -1.8696
