27

Co      0.0326  0.0165  0.0666
Cl      -1.0765  1.5983  -1.2247
Cl      1.0771  1.3234  1.2698
C       2.6602  -0.6681  -0.8524
C       2.0674  -1.8763  -0.0801
C       -2.4632  -1.3160  -0.4720
C       -2.3917  -1.1066  1.0580
N       1.4808  0.0833  -1.3324
N       0.9779  -1.4117  0.8383
N       -1.0745  -1.2923  -1.0395
N       -1.4070  -0.0335  1.3788
H       2.9031  -2.4404  0.3117
H       1.5151  -2.5229  -0.7578
H       -2.9248  -0.4976  -1.0071
H       -3.0698  -2.2177  -0.5788
H       1.7515  1.0324  -1.5816
H       1.3450  -0.3492  -2.2541
H       -1.9070  0.8456  1.3567
H       -1.1580  -0.1269  2.3507
H       -2.0123  -1.9793  1.5844
H       -3.4030  -0.9381  1.4109
H       0.4626  -2.2245  1.1272
H       1.5411  -1.2031  1.6800
H       3.3989  -1.1186  -1.5391
H       3.1544  0.0447  -0.2108
H       -0.8493  -2.2718  -1.1468
H       -1.1811  -0.9603  -1.9806
