27

Co      -0.0587  -0.0647  -0.0230
Cl      -1.1027  1.6356  -1.2183
Cl      1.1971  1.5006  1.3955
C       2.7613  -0.7263  -0.9020
C       2.2229  -2.0070  -0.0983
C       -2.5243  -1.2657  -0.4393
C       -2.4014  -1.1645  1.0835
N       1.5182  0.1036  -1.2652
N       1.0337  -1.4976  0.8683
N       -1.1284  -1.3103  -1.0289
N       -1.5061  -0.0029  1.3315
H       2.9802  -2.4607  0.5388
H       1.8076  -2.7774  -0.7395
H       -3.0121  -0.3960  -0.8472
H       -3.0747  -2.1464  -0.7408
H       1.7042  1.1069  -1.1434
H       1.2611  -0.0118  -2.2434
H       -1.9768  0.8694  1.1411
H       -1.1677  0.0663  2.2814
H       -1.9306  -2.0493  1.4925
H       -3.3588  -1.0445  1.5629
H       0.5461  -2.2856  1.2571
H       1.4611  -1.0057  1.6401
H       3.3755  -0.9114  -1.7777
H       3.3249  -0.1162  -0.2112
H       -0.7777  -2.2533  -1.0497
H       -1.1716  -0.9801  -1.9756
