27

Co      0.0262  0.0290  0.0026
Cl      -1.0985  1.6204  -1.2243
Cl      1.1142  1.3516  1.3037
C       2.6272  -0.6885  -0.8091
C       2.1311  -1.9639  -0.0861
C       -2.4854  -1.2986  -0.4613
C       -2.3883  -1.1273  1.0761
N       1.4331  0.0959  -1.2346
N       1.1394  -1.4845  0.9199
N       -1.1292  -1.3551  -1.1290
N       -1.4850  0.0133  1.4097
H       3.0387  -2.5228  0.2119
H       1.5329  -2.5944  -0.7460
H       -2.9043  -0.4245  -0.9503
H       -3.1801  -2.1453  -0.5742
H       1.7446  1.0443  -1.4379
H       1.3085  -0.2778  -2.1765
H       -2.0261  0.8713  1.3815
H       -1.2073  -0.0648  2.3760
H       -1.9370  -1.9792  1.5753
H       -3.4203  -1.0489  1.4275
H       0.6984  -2.2806  1.3699
H       1.7645  -1.1349  1.6565
H       3.3746  -1.0221  -1.5271
H       3.0962  -0.0001  -0.1202
H       -0.9264  -2.3485  -1.2206
H       -1.2897  -1.0543  -2.0808
