27

Co      -0.0482  -0.0257  -0.0266
Cl      -1.0751  1.6092  -1.2111
Cl      1.2116  1.5228  1.4245
C       2.6607  -0.7200  -0.7972
C       2.1570  -1.9674  -0.1134
C       -2.5525  -1.3546  -0.4501
C       -2.4284  -1.1327  1.0460
N       1.4552  0.0324  -1.2560
N       1.0770  -1.4698  0.7997
N       -1.1629  -1.2851  -1.0149
N       -1.3966  -0.0864  1.2772
H       2.9339  -2.4670  0.4554
H       1.7411  -2.6808  -0.8091
H       -3.1435  -0.5787  -0.9192
H       -3.0042  -2.3160  -0.6758
H       1.6696  1.0146  -1.3118
H       1.1957  -0.2426  -2.1817
H       -1.8070  0.8353  1.2519
H       -0.9926  -0.1660  2.1936
H       -2.1101  -2.0425  1.5375
H       -3.3714  -0.8395  1.4848
H       0.5930  -2.2431  1.2167
H       1.5187  -0.9634  1.5548
H       3.3201  -0.9315  -1.6241
H       3.1871  -0.0935  -0.0959
H       -0.7611  -2.2040  -1.0241
H       -1.2247  -0.9750  -1.9654
