27

Co      -0.0013  0.0262  0.0193
Cl      -1.0821  1.5994  -1.2257
Cl      1.1138  1.3774  1.3025
C       2.6850  -0.7262  -0.8797
C       2.1664  -1.9391  -0.0554
C       -2.4886  -1.3226  -0.4478
C       -2.4487  -1.1409  1.0831
N       1.5056  0.1032  -1.2810
N       1.0238  -1.4909  0.8181
N       -1.0895  -1.2410  -0.9991
N       -1.4661  -0.0511  1.3824
H       3.0499  -2.3843  0.3950
H       1.6993  -2.6830  -0.6853
H       -2.9700  -0.5100  -0.9752
H       -3.0530  -2.2381  -0.6016
H       1.8273  1.0546  -1.3960
H       1.4012  -0.1885  -2.2539
H       -1.9798  0.8184  1.3745
H       -1.1843  -0.1432  2.3455
H       -2.0732  -2.0075  1.6220
H       -3.4681  -0.9652  1.4181
H       0.5393  -2.3196  1.1248
H       1.5530  -1.2312  1.6561
H       3.3546  -1.1739  -1.6219
H       3.2493  -0.0316  -0.2736
H       -0.8119  -2.2046  -1.0670
H       -1.2126  -0.9565  -1.9585
