27

Co      0.0025  0.0054  -0.0054
Cl      -1.0908  1.6144  -1.2180
Cl      1.1596  1.4418  1.3654
C       2.5909  -0.7346  -0.8147
C       2.0967  -1.8388  -0.1213
C       -2.4873  -1.2808  -0.4094
C       -2.4126  -1.1292  1.0482
N       1.5684  0.0444  -1.3262
N       1.1123  -1.5378  0.8699
N       -1.1511  -1.3582  -1.0669
N       -1.5279  -0.0563  1.3854
H       2.9978  -2.2409  0.3439
H       1.7025  -2.6106  -0.7655
H       -3.0378  -0.4872  -0.8817
H       -3.0258  -2.2066  -0.5749
H       1.8524  1.0054  -1.3893
H       1.2921  -0.2277  -2.2467
H       -1.9688  0.8377  1.2949
H       -1.1966  -0.1201  2.3273
H       -2.0197  -2.0390  1.4767
H       -3.4135  -1.0024  1.4370
H       0.6535  -2.3982  1.1232
H       1.5180  -1.1573  1.7050
H       3.2847  -1.1054  -1.5594
H       3.1577  -0.1381  -0.1256
H       -0.8396  -2.3099  -1.1178
H       -1.2557  -1.0282  -2.0097
