27

Co      0.0492  0.0105  0.0385
Cl      -1.0855  1.5882  -1.2176
Cl      1.0831  1.3255  1.2710
C       2.6504  -0.6895  -0.8404
C       2.0928  -1.8868  -0.0789
C       -2.5001  -1.2987  -0.4378
C       -2.4210  -1.1352  1.0685
N       1.5092  0.1129  -1.3291
N       1.0532  -1.4441  0.8920
N       -1.1140  -1.2509  -1.0259
N       -1.4764  -0.0309  1.3606
H       2.8740  -2.4261  0.4166
H       1.6113  -2.5699  -0.7691
H       -3.0544  -0.4861  -0.8684
H       -2.9842  -2.2245  -0.6996
H       1.7368  1.0833  -1.4079
H       1.2024  -0.1831  -2.2379
H       -1.9185  0.8637  1.2254
H       -1.1663  -0.0438  2.3098
H       -2.0473  -2.0351  1.5408
H       -3.4008  -0.9355  1.4814
H       0.4952  -2.2296  1.1722
H       1.4838  -1.0692  1.7169
H       3.2728  -1.0319  -1.6593
H       3.2497  -0.0709  -0.1972
H       -0.7618  -2.1819  -1.1358
H       -1.1820  -0.8326  -1.9405
