27

Co      0.0028  -0.0038  0.0125
Cl      -1.0938  1.6348  -1.2315
Cl      1.1125  1.3646  1.3151
C       2.5686  -0.6882  -0.7455
C       2.0511  -1.8581  -0.0982
C       -2.4294  -1.2775  -0.4447
C       -2.3720  -1.1216  1.0577
N       1.4920  0.0705  -1.3645
N       1.1421  -1.5239  0.8981
N       -1.0772  -1.3348  -1.0648
N       -1.4718  -0.0043  1.4171
H       2.8890  -2.4634  0.2523
H       1.5408  -2.4509  -0.8536
H       -2.9138  -0.4129  -0.8594
H       -3.0131  -2.1436  -0.7052
H       1.7378  1.0312  -1.5060
H       1.2495  -0.2996  -2.2683
H       -1.9187  0.8957  1.3824
H       -1.0969  -0.1031  2.3401
H       -1.9949  -2.0137  1.5407
H       -3.3830  -0.9643  1.4178
H       0.6615  -2.3397  1.2178
H       1.5804  -1.1050  1.6961
H       3.2413  -1.0833  -1.4976
H       3.1308  -0.0504  -0.0972
H       -0.7349  -2.2718  -1.0771
H       -1.1431  -1.0125  -2.0084
