27

Co      0.0587  0.0495  0.0264
Cl      -1.0520  1.5483  -1.1899
Cl      1.0931  1.3461  1.2951
C       2.5366  -0.6844  -0.7673
C       2.0306  -1.8326  -0.0724
C       -2.4996  -1.3249  -0.4517
C       -2.3951  -1.1184  1.0352
N       1.4606  0.0889  -1.3458
N       1.0685  -1.4769  0.8496
N       -1.1353  -1.3086  -1.0420
N       -1.4180  -0.0488  1.3426
H       2.8618  -2.3712  0.3521
H       1.5785  -2.4927  -0.8020
H       -3.0521  -0.5202  -0.8969
H       -3.0109  -2.2469  -0.6701
H       1.7324  1.0384  -1.5430
H       1.1546  -0.3108  -2.2207
H       -1.8472  0.8621  1.3209
H       -1.0585  -0.1602  2.2648
H       -2.0644  -2.0243  1.5312
H       -3.3735  -0.8767  1.4358
H       0.5008  -2.2764  1.0704
H       1.4690  -1.1440  1.7103
H       3.1665  -1.1067  -1.5476
H       3.1462  -0.0472  -0.1530
H       -0.7785  -2.2348  -1.0742
H       -1.2027  -0.9721  -1.9835
