27

Co      0.0051  0.0690  0.0180
Cl      -1.0916  1.6115  -1.2249
Cl      1.1198  1.3737  1.3077
C       2.6764  -0.7294  -0.8212
C       2.1711  -1.9628  -0.0968
C       -2.5310  -1.3133  -0.4482
C       -2.4280  -1.1619  1.0537
N       1.5053  0.0642  -1.2899
N       1.1061  -1.5227  0.8541
N       -1.1350  -1.3182  -0.9966
N       -1.4776  -0.0554  1.3587
H       2.9735  -2.4605  0.4229
H       1.7411  -2.6728  -0.7885
H       -3.0490  -0.4793  -0.8872
H       -3.0488  -2.2190  -0.7158
H       1.7631  1.0273  -1.4156
H       1.1918  -0.2552  -2.1876
H       -1.9401  0.8365  1.3232
H       -1.1077  -0.1377  2.2864
H       -2.0409  -2.0691  1.5011
H       -3.3962  -0.9737  1.4937
H       0.5630  -2.3139  1.1480
H       1.5318  -1.1362  1.6771
H       3.3149  -0.9994  -1.6496
H       3.2447  -0.1093  -0.1482
H       -0.7522  -2.2412  -0.9395
H       -1.1696  -1.0590  -1.9644
