27

Co      0.0078  0.0261  0.0004
Cl      -1.0696  1.5620  -1.1891
Cl      1.1259  1.3718  1.3270
C       2.6696  -0.6841  -0.8094
C       2.0842  -1.9027  -0.1104
C       -2.4989  -1.2850  -0.4439
C       -2.4104  -1.1499  1.0702
N       1.5334  0.0845  -1.3846
N       1.1025  -1.4636  0.9250
N       -1.1343  -1.3104  -1.0759
N       -1.5287  -0.0011  1.4039
H       2.8650  -2.5194  0.3167
H       1.5446  -2.5115  -0.8331
H       -3.0090  -0.4276  -0.8499
H       -3.0552  -2.1644  -0.7093
H       1.7570  1.0543  -1.5085
H       1.2655  -0.2684  -2.2863
H       -2.0017  0.8813  1.3072
H       -1.1808  -0.0393  2.3402
H       -1.9791  -2.0390  1.5130
H       -3.4050  -1.0319  1.4837
H       0.5915  -2.2492  1.2775
H       1.5667  -1.0304  1.6990
H       3.3772  -0.9889  -1.5706
H       3.1806  -0.0498  -0.1075
H       -0.7922  -2.2509  -1.1388
H       -1.2086  -0.9420  -2.0057
