27

Co      -0.0106  -0.0799  0.0040
Cl      -1.1120  1.6414  -1.2272
Cl      1.1778  1.4713  1.3758
C       2.6931  -0.7246  -0.8376
C       2.1552  -1.9275  -0.0969
C       -2.5559  -1.2925  -0.4340
C       -2.4149  -1.1612  1.0650
N       1.5071  0.0770  -1.2541
N       1.0797  -1.4275  0.8212
N       -1.1587  -1.2513  -0.9936
N       -1.4713  -0.0384  1.2581
H       2.9185  -2.4371  0.4724
H       1.7152  -2.6450  -0.7782
H       -3.0999  -0.4619  -0.8433
H       -3.0415  -2.2128  -0.7286
H       1.7131  1.0693  -1.2091
H       1.2541  -0.1106  -2.2085
H       -1.9177  0.8465  1.0392
H       -1.1639  0.0474  2.2168
H       -1.9927  -2.0530  1.5075
H       -3.3594  -0.9680  1.5465
H       0.5927  -2.2051  1.2296
H       1.5192  -0.9258  1.5800
H       3.2855  -1.0123  -1.6943
H       3.3035  -0.1155  -0.1895
H       -0.8016  -2.1884  -1.0610
H       -1.2062  -0.8774  -1.9255
