27

Co      -0.0467  -0.0103  -0.0374
Cl      -1.0629  1.5502  -1.1716
Cl      1.1908  1.4784  1.3942
C       2.6924  -0.7221  -0.7986
C       2.1697  -1.9831  -0.0499
C       -2.6092  -1.3344  -0.4656
C       -2.4340  -1.1995  1.0644
N       1.4823  0.1277  -1.3337
N       1.1262  -1.5017  0.8525
N       -1.1831  -1.1880  -0.9445
N       -1.4439  -0.0284  1.2233
H       2.9203  -2.6071  0.4348
H       1.6845  -2.5972  -0.8086
H       -3.1506  -0.4705  -0.8276
H       -3.0662  -2.2376  -0.8611
H       1.7207  1.1125  -1.3070
H       1.2941  -0.0916  -2.2961
H       -1.9229  0.8540  1.1455
H       -1.0229  -0.0215  2.1335
H       -2.0106  -2.0752  1.5427
H       -3.3597  -0.9562  1.5790
H       0.6300  -2.2612  1.2894
H       1.5554  -0.9600  1.5969
H       3.2468  -1.0695  -1.6669
H       3.3323  -0.0677  -0.2142
H       -0.7190  -2.0859  -0.8727
H       -1.1846  -0.9269  -1.9157
