27

Co      -0.0141  0.0080  0.0261
Cl      -1.0818  1.6246  -1.2251
Cl      1.1536  1.4397  1.3643
C       2.6208  -0.7099  -0.8000
C       2.0813  -1.8618  -0.0823
C       -2.4672  -1.3250  -0.4703
C       -2.3900  -1.1241  1.0511
N       1.5066  0.0482  -1.3564
N       1.0504  -1.5054  0.7927
N       -1.1148  -1.3929  -1.0805
N       -1.4451  -0.0254  1.4103
H       2.9766  -2.4128  0.2491
H       1.5728  -2.4931  -0.7945
H       -2.8747  -0.4618  -0.9869
H       -3.1650  -2.1763  -0.5748
H       1.8269  0.9881  -1.6099
H       1.4314  -0.3905  -2.2898
H       -1.9574  0.8497  1.4698
H       -1.1381  -0.1864  2.3615
H       -1.9982  -1.9831  1.5873
H       -3.4224  -0.9916  1.3699
H       0.5840  -2.3562  1.0615
H       1.5719  -1.2778  1.6480
H       3.3471  -1.2524  -1.4559
H       3.1496  0.0177  -0.1995
H       -0.8935  -2.3797  -1.1053
H       -1.2314  -1.1558  -2.0531
