27

Co      0.0047  0.0224  0.0178
Cl      -1.0672  1.5849  -1.2152
Cl      1.0893  1.3338  1.2867
C       2.5753  -0.6990  -0.7784
C       2.0564  -1.8407  -0.0744
C       -2.4122  -1.2928  -0.4376
C       -2.3975  -1.1089  1.0666
N       1.5127  0.0937  -1.3747
N       1.0987  -1.5142  0.8726
N       -1.0630  -1.2872  -1.0649
N       -1.4757  -0.0117  1.4528
H       2.8932  -2.3915  0.3286
H       1.5911  -2.4849  -0.8062
H       -2.9412  -0.4675  -0.8726
H       -2.9455  -2.1931  -0.6841
H       1.7779  1.0489  -1.4947
H       1.2578  -0.2495  -2.2846
H       -1.9096  0.8965  1.4582
H       -1.0924  -0.1539  2.3691
H       -2.0665  -2.0028  1.5855
H       -3.4227  -0.9147  1.3833
H       0.5841  -2.3366  1.1242
H       1.4988  -1.1395  1.7143
H       3.2025  -1.1480  -1.5503
H       3.1936  -0.0644  -0.1728
H       -0.6957  -2.2118  -1.1273
H       -1.1507  -0.9198  -1.9934
