27

Co      0.0517  0.0282  0.0271
Cl      -1.0926  1.6172  -1.2265
Cl      1.0898  1.3348  1.2926
C       2.6421  -0.6581  -0.8220
C       2.0590  -1.9017  -0.0923
C       -2.4635  -1.2906  -0.4584
C       -2.4181  -1.1481  1.0810
N       1.4869  0.0870  -1.3833
N       1.0386  -1.4769  0.9145
N       -1.0717  -1.3150  -1.0314
N       -1.4915  -0.0263  1.4153
H       2.9315  -2.5113  0.2012
H       1.4536  -2.4922  -0.7894
H       -2.8655  -0.4102  -0.9522
H       -3.1243  -2.1384  -0.6287
H       1.7692  1.0337  -1.6526
H       1.3819  -0.3726  -2.3049
H       -2.0246  0.8325  1.3592
H       -1.2434  -0.0876  2.3916
H       -1.9942  -2.0134  1.5833
H       -3.4508  -1.0487  1.4213
H       0.5473  -2.2941  1.2357
H       1.6273  -1.2436  1.7277
H       3.4557  -1.0758  -1.4586
H       3.0622  0.0644  -0.1304
H       -0.8574  -2.3026  -1.0880
H       -1.1813  -1.0384  -1.9915
