27

Co      0.0082  0.0598  0.0044
Cl      -1.0402  1.5401  -1.1785
Cl      1.1099  1.3730  1.3100
C       2.6048  -0.6886  -0.8244
C       2.1032  -1.9169  -0.0787
C       -2.4828  -1.2981  -0.4595
C       -2.3767  -1.1241  1.0439
N       1.4496  0.0983  -1.3177
N       1.0128  -1.5102  0.8549
N       -1.1001  -1.3308  -1.0283
N       -1.4184  -0.0330  1.3596
H       2.9113  -2.3874  0.4528
H       1.6955  -2.6471  -0.7657
H       -2.9962  -0.4690  -0.9081
H       -3.0195  -2.2002  -0.6971
H       1.6941  1.0612  -1.4429
H       1.1322  -0.2292  -2.2139
H       -1.8670  0.8679  1.3467
H       -1.0354  -0.1340  2.2754
H       -2.0023  -2.0303  1.4991
H       -3.3459  -0.9261  1.4768
H       0.4444  -2.3054  1.0906
H       1.4085  -1.1650  1.7140
H       3.2467  -0.9812  -1.6409
H       3.1676  -0.0553  -0.1624
H       -0.7325  -2.2555  -0.9795
H       -1.1411  -1.0650  -1.9943
