27

Co      0.0043  0.0361  -0.0065
Cl      -1.0606  1.5715  -1.1886
Cl      1.1269  1.3928  1.3370
C       2.5681  -0.7070  -0.7992
C       2.0490  -1.8154  -0.1312
C       -2.4344  -1.2372  -0.4173
C       -2.3784  -1.1319  1.0451
N       1.5519  0.0348  -1.3713
N       1.0643  -1.5221  0.8583
N       -1.0876  -1.3672  -1.0336
N       -1.5289  -0.0397  1.4118
H       2.9352  -2.2414  0.3269
H       1.6515  -2.5639  -0.7971
H       -2.9279  -0.4026  -0.8731
H       -3.0135  -2.1236  -0.6197
H       1.8244  0.9901  -1.5117
H       1.2698  -0.3146  -2.2684
H       -1.9909  0.8441  1.3254
H       -1.1982  -0.1018  2.3502
H       -1.9531  -2.0442  1.4451
H       -3.3871  -1.0559  1.4395
H       0.5814  -2.3789  1.0811
H       1.4650  -1.1807  1.7132
H       3.3105  -1.0723  -1.5056
H       3.0810  -0.0947  -0.0840
H       -0.7806  -2.3187  -0.9935
H       -1.1580  -1.1149  -2.0022
