27

Co      -0.0329  -0.0075  -0.0384
Cl      -1.0832  1.5876  -1.1981
Cl      1.1705  1.4448  1.3646
C       2.7409  -0.7178  -0.8074
C       2.2198  -2.0613  -0.0842
C       -2.5791  -1.3112  -0.4473
C       -2.4434  -1.1979  1.0832
N       1.4567  0.1143  -1.2803
N       1.1277  -1.4831  0.8798
N       -1.1506  -1.2200  -0.9687
N       -1.4824  -0.0200  1.2912
H       2.8402  -2.6698  0.6030
H       1.8004  -2.7154  -0.8487
H       -3.1658  -0.4391  -0.7332
H       -2.9651  -2.2173  -0.9683
H       1.5847  1.1264  -1.1745
H       1.0246  -0.0428  -2.1910
H       -1.8843  0.8917  1.1286
H       -1.0091  0.0262  2.1843
H       -2.0620  -2.1124  1.5136
H       -3.3514  -0.9189  1.6151
H       0.5322  -2.1747  1.3173
H       1.4516  -0.8049  1.6074
H       3.2372  -0.7761  -1.8232
H       3.3773  -0.1555  -0.1327
H       -0.5920  -2.0795  -0.9101
H       -1.1111  -0.8579  -1.9058
