27

Co      0.0252  0.0755  -0.0116
Cl      -1.0623  1.5801  -1.2014
Cl      1.1341  1.4024  1.3404
C       2.5539  -0.7304  -0.7713
C       2.0958  -1.8730  -0.1395
C       -2.4714  -1.2910  -0.4175
C       -2.4178  -1.1280  1.0385
N       1.4816  -0.0121  -1.2516
N       1.0875  -1.4896  0.7773
N       -1.1185  -1.3727  -1.0298
N       -1.4913  -0.0929  1.3918
H       2.9756  -2.2414  0.3923
H       1.7512  -2.6700  -0.7893
H       -3.0101  -0.5009  -0.9066
H       -3.0046  -2.2174  -0.5841
H       1.7738  0.9340  -1.4726
H       1.1398  -0.4024  -2.1182
H       -1.9255  0.8119  1.3650
H       -1.1446  -0.2115  2.3238
H       -2.0767  -2.0554  1.4789
H       -3.4167  -0.9549  1.4121
H       0.5674  -2.3050  1.0406
H       1.4984  -1.1260  1.6162
H       3.2782  -0.9913  -1.5266
H       3.0585  -0.1316  -0.0320
H       -0.7894  -2.3137  -0.9861
H       -1.2130  -1.1351  -2.0032
