27

Co      0.0057  0.0408  0.0112
Cl      -1.1069  1.6434  -1.2403
Cl      1.1351  1.4000  1.3274
C       2.6525  -0.7196  -0.8230
C       2.1644  -1.9616  -0.0882
C       -2.5163  -1.3152  -0.4494
C       -2.4109  -1.1448  1.0580
N       1.4998  0.0924  -1.3053
N       1.1251  -1.5760  0.9179
N       -1.1473  -1.3752  -1.0696
N       -1.4807  -0.0284  1.3931
H       2.9986  -2.4678  0.3738
H       1.7074  -2.6544  -0.7787
H       -3.0171  -0.4682  -0.8872
H       -3.0862  -2.2012  -0.6846
H       1.7558  1.0586  -1.3893
H       1.1992  -0.1958  -2.2165
H       -1.9371  0.8665  1.3681
H       -1.1016  -0.1285  2.3184
H       -2.0207  -2.0427  1.5146
H       -3.3938  -0.9750  1.4728
H       0.6022  -2.3856  1.1976
H       1.5508  -1.1914  1.7427
H       3.2916  -1.0037  -1.6453
H       3.2263  -0.0983  -0.1568
H       -0.7963  -2.3112  -1.0652
H       -1.2094  -1.0725  -2.0220
