27

Co      -0.0067  -0.0324  -0.0196
Cl      -1.0724  1.5865  -1.1898
Cl      1.1887  1.5020  1.4056
C       2.6827  -0.7166  -0.8508
C       2.1282  -1.9105  -0.0938
C       -2.5240  -1.2791  -0.4370
C       -2.4239  -1.1805  1.0727
N       1.5226  0.0741  -1.3510
N       0.9890  -1.4745  0.7907
N       -1.1323  -1.3318  -0.9965
N       -1.5164  -0.0357  1.3369
H       2.8937  -2.3859  0.5077
H       1.7438  -2.6474  -0.7864
H       -2.9917  -0.3970  -0.8372
H       -3.0901  -2.1437  -0.7551
H       1.7410  1.0554  -1.3801
H       1.2645  -0.1830  -2.2831
H       -1.9812  0.8392  1.1678
H       -1.1908  0.0011  2.2861
H       -1.9943  -2.0707  1.5081
H       -3.3941  -1.0342  1.5170
H       0.4346  -2.2709  1.0475
H       1.3608  -1.0890  1.6424
H       3.3159  -1.0412  -1.6582
H       3.2569  -0.0762  -0.2009
H       -0.7879  -2.2743  -0.9803
H       -1.1677  -1.0466  -1.9590
