27

Co      -0.0086  -0.0750  -0.0199
Cl      -1.1145  1.6397  -1.2255
Cl      1.1803  1.4783  1.3848
C       2.6675  -0.7131  -0.8467
C       2.1405  -1.9222  -0.0768
C       -2.5560  -1.2891  -0.4243
C       -2.4350  -1.1754  1.0769
N       1.5403  0.1295  -1.3471
N       1.1012  -1.5360  0.9329
N       -1.1539  -1.2248  -0.9756
N       -1.4994  -0.0409  1.2695
H       2.9639  -2.4386  0.3944
H       1.6705  -2.6204  -0.7574
H       -3.1044  -0.4545  -0.8284
H       -3.0266  -2.2091  -0.7457
H       1.7657  1.1218  -1.2373
H       1.3355  -0.0149  -2.3282
H       -1.9548  0.8398  1.0669
H       -1.1679  0.0355  2.2185
H       -2.0065  -2.0646  1.5184
H       -3.3884  -0.9936  1.5503
H       0.6465  -2.3550  1.2964
H       1.5306  -1.0554  1.7084
H       3.2899  -1.0577  -1.6623
H       3.2704  -0.0939  -0.2053
H       -0.7780  -2.1558  -1.0268
H       -1.2003  -0.8665  -1.9132
