27

Co      -0.0088  -0.0389  0.0063
Cl      -1.1075  1.6314  -1.2338
Cl      1.1789  1.4725  1.3778
C       2.8087  -0.7194  -0.8567
C       2.2096  -2.0319  -0.0776
C       -2.5952  -1.3592  -0.4574
C       -2.4968  -1.1994  1.0982
N       1.4978  0.0887  -1.3076
N       1.0404  -1.4106  0.8025
N       -1.1572  -1.2162  -0.9670
N       -1.4806  -0.0541  1.3064
H       2.8576  -2.6638  0.5485
H       1.7241  -2.6624  -0.8199
H       -3.1279  -0.5021  -0.8421
H       -3.0517  -2.2684  -0.8465
H       1.6685  1.0843  -1.3274
H       1.2407  -0.1655  -2.2425
H       -1.9264  0.8386  1.1606
H       -1.1301  -0.0239  2.2519
H       -2.1403  -2.0837  1.6139
H       -3.4426  -0.9165  1.5418
H       0.4545  -2.1274  1.2066
H       1.4764  -0.9239  1.5712
H       3.3841  -0.9510  -1.7490
H       3.3942  -0.0670  -0.2218
H       -0.7320  -2.1289  -1.0376
H       -1.1833  -0.8259  -1.8937
