27

Co      -0.0580  -0.0681  -0.0302
Cl      -1.1086  1.6449  -1.2347
Cl      1.2015  1.5067  1.4044
C       2.7690  -0.7128  -0.8451
C       2.2196  -2.0547  -0.0645
C       -2.5846  -1.3518  -0.4558
C       -2.4762  -1.1895  1.0947
N       1.4814  0.1252  -1.3198
N       1.0868  -1.5085  0.8886
N       -1.1353  -1.1574  -0.9316
N       -1.4352  -0.0571  1.2570
H       2.9291  -2.6736  0.4863
H       1.7203  -2.6852  -0.7981
H       -3.1487  -0.5151  -0.8497
H       -2.9918  -2.2862  -0.8578
H       1.6569  1.1307  -1.2175
H       1.2922  -0.0330  -2.3037
H       -1.8761  0.8433  1.1514
H       -1.0271  -0.0374  2.1795
H       -2.1202  -2.0749  1.6079
H       -3.4074  -0.8835  1.5621
H       0.5945  -2.2577  1.3612
H       1.5391  -0.9458  1.6133
H       3.3573  -0.9379  -1.7304
H       3.3446  -0.0628  -0.2040
H       -0.6653  -2.0543  -0.9446
H       -1.1476  -0.8147  -1.8742
