27

Co      -0.0188  -0.0322  0.0099
Cl      -1.1239  1.6559  -1.2288
Cl      1.1863  1.4725  1.3859
C       2.6988  -0.7160  -0.8212
C       2.1498  -1.9384  -0.1103
C       -2.6006  -1.2972  -0.4528
C       -2.3940  -1.1798  1.0400
N       1.5446  0.0787  -1.3354
N       1.1442  -1.5235  0.9242
N       -1.2049  -1.3254  -1.0017
N       -1.4744  -0.0327  1.2430
H       2.9496  -2.5230  0.3325
H       1.6401  -2.5812  -0.8224
H       -3.1108  -0.4382  -0.8581
H       -3.1380  -2.1893  -0.7332
H       1.7643  1.0647  -1.3466
H       1.3047  -0.1697  -2.2721
H       -1.9518  0.8427  1.0810
H       -1.1342  0.0151  2.1883
H       -1.9093  -2.0733  1.4291
H       -3.3217  -1.0438  1.5855
H       0.6886  -2.3322  1.3107
H       1.6087  -1.0523  1.6835
H       3.3613  -1.0149  -1.6208
H       3.2545  -0.0921  -0.1414
H       -0.8537  -2.2673  -0.9672
H       -1.2135  -1.0396  -1.9622
