27

Co      -0.0640  0.0008  -0.0034
Cl      -1.0856  1.5942  -1.2047
Cl      1.1730  1.4476  1.3654
C       2.7657  -0.7180  -0.8640
C       2.1952  -1.9893  -0.1250
C       -2.5667  -1.2975  -0.4399
C       -2.4070  -1.1554  1.0485
N       1.5690  0.0918  -1.3506
N       1.1027  -1.5211  0.9527
N       -1.1715  -1.2832  -1.0170
N       -1.4782  -0.0312  1.3083
H       2.8696  -2.5303  0.5440
H       1.7810  -2.7032  -0.8292
H       -3.2038  -0.4976  -0.8057
H       -2.9463  -2.2536  -0.8108
H       1.6942  1.1038  -1.2263
H       1.1218  -0.0542  -2.2589
H       -1.8675  0.8880  1.1707
H       -1.0219  -0.0273  2.2051
H       -1.9960  -2.0908  1.4118
H       -3.3114  -0.9413  1.6073
H       0.5689  -2.2909  1.3013
H       1.4290  -0.9229  1.7187
H       3.3549  -0.8068  -1.7994
H       3.3524  -0.1783  -0.1297
H       -0.6642  -2.1624  -0.9989
H       -1.1411  -0.8885  -1.9399
