27

Co      -0.0258  -0.0385  0.0179
Cl      -1.1075  1.6314  -1.2338
Cl      1.1789  1.4749  1.3778
C       2.7388  -0.7455  -0.8325
C       2.1622  -1.9145  -0.1166
C       -2.5867  -1.3282  -0.4184
C       -2.4700  -1.1759  1.0525
N       1.5979  0.0520  -1.3592
N       1.0911  -1.4676  0.8321
N       -1.1764  -1.2163  -0.9347
N       -1.4843  -0.0944  1.2671
H       2.8270  -2.4451  0.5791
H       1.8043  -2.6348  -0.8497
H       -3.2618  -0.5579  -0.7869
H       -2.8928  -2.3194  -0.8276
H       1.7436  1.0566  -1.2667
H       1.1703  -0.1233  -2.2614
H       -1.8395  0.8358  1.0816
H       -1.0703  -0.0643  2.1812
H       -2.1421  -2.1190  1.4749
H       -3.3763  -0.8674  1.5672
H       0.5266  -2.2409  1.1200
H       1.3694  -0.9056  1.6430
H       3.2741  -0.9757  -1.7579
H       3.4065  -0.1998  -0.1738
H       -0.6495  -2.0869  -0.9577
H       -1.1446  -0.7904  -1.8484
