27

Co      -0.0439  -0.0021  -0.0267
Cl      -1.0654  1.5568  -1.1782
Cl      1.1932  1.4764  1.3950
C       2.6979  -0.7320  -0.8310
C       2.1645  -1.9451  -0.1004
C       -2.5629  -1.3111  -0.4435
C       -2.4171  -1.1569  1.0588
N       1.5267  0.0761  -1.2924
N       1.1108  -1.4669  0.8478
N       -1.1943  -1.2949  -1.0607
N       -1.4979  -0.0202  1.3180
H       2.9497  -2.4628  0.4341
H       1.7136  -2.6480  -0.7842
H       -3.1158  -0.4854  -0.8613
H       -3.0765  -2.2254  -0.6939
H       1.7671  1.0560  -1.3006
H       1.2749  -0.1563  -2.2331
H       -1.9643  0.8649  1.2264
H       -1.1231  -0.0411  2.2465
H       -1.9834  -2.0439  1.4991
H       -3.3779  -0.9980  1.5227
H       0.6328  -2.2513  1.2540
H       1.5522  -0.9617  1.6014
H       3.3258  -1.0129  -1.6625
H       3.2783  -0.1147  -0.1626
H       -0.8203  -2.2269  -1.0972
H       -1.2680  -0.9575  -2.0032
