27

Co      0.0252  0.0638  -0.0083
Cl      -1.0539  1.5606  -1.1820
Cl      1.1202  1.3774  1.3237
C       2.5619  -0.7086  -0.7672
C       2.0909  -1.8989  -0.0784
C       -2.4743  -1.2852  -0.4635
C       -2.3817  -1.1515  1.0554
N       1.4188  0.0499  -1.2530
N       1.0754  -1.4694  0.7597
N       -1.1017  -1.3590  -1.0308
N       -1.4671  -0.0204  1.3727
H       3.0039  -2.3934  0.2813
H       1.6135  -2.5746  -0.7678
H       -2.8511  -0.3861  -0.9415
H       -3.1796  -2.1097  -0.6272
H       1.7713  0.9807  -1.5517
H       1.3005  -0.4020  -2.1705
H       -2.0168  0.8326  1.3781
H       -1.1774  -0.1166  2.3287
H       -1.9415  -2.0108  1.5531
H       -3.4068  -1.0582  1.4153
H       0.5843  -2.2751  1.1008
H       1.6185  -1.1947  1.5772
H       3.2785  -1.1521  -1.4645
H       3.0756  0.0014  -0.1360
H       -0.8714  -2.3403  -0.9558
H       -1.2116  -1.2184  -2.0386
