27

Co      0.0525  0.0499  0.0561
Cl      -1.0813  1.5874  -1.2140
Cl      1.0859  1.3314  1.2654
C       2.6584  -0.7181  -0.8546
C       2.1432  -1.9132  -0.0759
C       -2.5106  -1.2980  -0.4556
C       -2.3827  -1.1297  1.0495
N       1.4762  0.0924  -1.2374
N       1.0318  -1.4370  0.8061
N       -1.1463  -1.3809  -1.0854
N       -1.4671  -0.0060  1.3831
H       2.9153  -2.3732  0.5154
H       1.7406  -2.6663  -0.7453
H       -3.0029  -0.4503  -0.8852
H       -3.0973  -2.1793  -0.6725
H       1.7247  1.0539  -1.3707
H       1.0962  -0.2197  -2.1198
H       -1.9246  0.8806  1.2789
H       -1.1595  -0.0501  2.3325
H       -1.9754  -2.0256  1.4973
H       -3.3594  -0.9724  1.4824
H       0.4129  -2.2098  1.0204
H       1.4261  -1.1192  1.6800
H       3.2145  -1.0284  -1.7347
H       3.3093  -0.1089  -0.2370
H       -0.8349  -2.3268  -1.1422
H       -1.2109  -1.0182  -2.0196
