27

Co      0.0474  -0.0161  0.0332
Cl      -1.0894  1.6236  -1.2335
Cl      1.0899  1.3494  1.2887
C       2.5215  -0.6876  -0.8002
C       2.0278  -1.7962  -0.1100
C       -2.4357  -1.2737  -0.4149
C       -2.3775  -1.0850  1.0379
N       1.4966  0.0638  -1.3023
N       1.0592  -1.4842  0.8823
N       -1.0817  -1.2930  -1.0319
N       -1.4313  -0.0692  1.3500
H       2.9186  -2.2110  0.3421
H       1.6145  -2.5595  -0.7572
H       -3.0222  -0.5208  -0.9130
H       -2.9135  -2.2380  -0.5655
H       1.7500  1.0251  -1.3959
H       1.1881  -0.2395  -2.2071
H       -1.8340  0.8463  1.2368
H       -1.1296  -0.1213  2.2977
H       -2.0465  -2.0098  1.4937
H       -3.3674  -0.8812  1.4199
H       0.5740  -2.3304  1.1230
H       1.4791  -1.1354  1.7263
H       3.2115  -1.0566  -1.5509
H       3.0862  -0.0946  -0.1141
H       -0.7723  -2.2370  -1.1272
H       -1.1757  -0.9077  -1.9555
