27

Co      0.0609  -0.0123  0.0176
Cl      -1.1121  1.6416  -1.2304
Cl      1.1132  1.3748  1.3064
C       2.6420  -0.6965  -0.8425
C       2.1298  -1.9372  -0.0754
C       -2.5002  -1.2666  -0.4513
C       -2.3993  -1.1653  1.0832
N       1.4398  0.0947  -1.2299
N       1.0438  -1.4433  0.8301
N       -1.1073  -1.3372  -1.0307
N       -1.5020  -0.0069  1.3511
H       3.0035  -2.4326  0.3350
H       1.6117  -2.6339  -0.7236
H       -2.8691  -0.3538  -0.9126
H       -3.1991  -2.0892  -0.6441
H       1.7370  1.0500  -1.3990
H       1.3047  -0.2437  -2.1788
H       -2.0517  0.8314  1.1808
H       -1.2990  0.0418  2.3496
H       -1.9179  -2.0188  1.5551
H       -3.4125  -1.0971  1.4763
H       0.5414  -2.2367  1.1920
H       1.6126  -1.1613  1.6321
H       3.3400  -1.0709  -1.5837
H       3.1587  -0.0049  -0.1942
H       -0.9199  -2.3367  -1.0773
H       -1.2194  -1.0767  -2.0003
