27

Co      0.0170  -0.0008  -0.0117
Cl      -1.0657  1.5974  -1.2151
Cl      1.1409  1.4300  1.3498
C       2.6090  -0.6979  -0.8152
C       2.1179  -1.9353  -0.0869
C       -2.4544  -1.3199  -0.4397
C       -2.4243  -1.1157  1.0754
N       1.4246  0.0711  -1.2683
N       1.0042  -1.4719  0.7997
N       -1.0841  -1.3301  -1.0636
N       -1.4431  -0.0506  1.4121
H       2.9049  -2.3864  0.4987
H       1.7319  -2.6799  -0.7693
H       -2.9788  -0.5013  -0.8950
H       -2.9846  -2.2296  -0.6767
H       1.6488  1.0407  -1.3733
H       1.1110  -0.2365  -2.1729
H       -1.8535  0.8657  1.3721
H       -1.0772  -0.1500  2.3402
H       -2.1310  -2.0194  1.5972
H       -3.4238  -0.8602  1.4116
H       0.4273  -2.2441  1.0743
H       1.3975  -1.0852  1.6404
H       3.2418  -0.9468  -1.6491
H       3.1648  -0.0685  -0.1444
H       -0.7305  -2.2613  -1.1316
H       -1.1810  -0.9719  -1.9980
