27

Co      0.0091  -0.0739  -0.0442
Cl      -1.0828  1.6058  -1.1995
Cl      1.1921  1.5046  1.4125
C       2.6200  -0.6901  -0.8031
C       2.1033  -1.9287  -0.0986
C       -2.5366  -1.2936  -0.4286
C       -2.4324  -1.1674  1.0739
N       1.4466  0.0782  -1.2963
N       1.0400  -1.4545  0.8371
N       -1.1272  -1.2388  -0.9626
N       -1.4596  -0.0674  1.2557
H       2.8890  -2.4332  0.4429
H       1.6688  -2.6358  -0.7922
H       -3.0725  -0.4568  -0.8389
H       -3.0116  -2.2094  -0.7522
H       1.6490  1.0675  -1.2953
H       1.2103  -0.1585  -2.2410
H       -1.8951  0.8253  1.0560
H       -1.1305  0.0060  2.2039
H       -2.0528  -2.0666  1.5345
H       -3.3828  -0.9373  1.5284
H       0.5406  -2.2259  1.2371
H       1.4740  -0.9585  1.5998
H       3.2866  -0.9352  -1.6121
H       3.1453  -0.0603  -0.1083
H       -0.7567  -2.1697  -0.9838
H       -1.1788  -0.9183  -1.9132
