27

Co      0.0086  0.0690  0.0229
Cl      -1.0713  1.5782  -1.2026
Cl      1.1401  1.4004  1.3332
C       2.6942  -0.7290  -0.8163
C       2.1590  -1.9507  -0.1151
C       -2.5379  -1.3261  -0.4586
C       -2.4144  -1.1469  1.0470
N       1.4895  0.0273  -1.2565
N       1.0741  -1.4308  0.7780
N       -1.1727  -1.3924  -1.0809
N       -1.4823  -0.0348  1.3866
H       2.9107  -2.4648  0.4665
H       1.7347  -2.6550  -0.8146
H       -3.0423  -0.4844  -0.8963
H       -3.1132  -2.2140  -0.6747
H       1.7321  0.9880  -1.4592
H       1.1382  -0.3556  -2.1237
H       -1.9407  0.8588  1.3514
H       -1.1275  -0.1300  2.3200
H       -2.0240  -2.0476  1.4996
H       -3.3895  -0.9751  1.4731
H       0.4910  -2.1891  1.0823
H       1.5010  -1.0437  1.5973
H       3.3313  -0.9692  -1.6530
H       3.2514  -0.1064  -0.1322
H       -0.8321  -2.3321  -1.0868
H       -1.2383  -1.0844  -2.0315
