27

Co      0.0004  -0.0035  0.0175
Cl      -1.1086  1.6459  -1.2455
Cl      1.1299  1.3872  1.3239
C       2.6701  -0.7024  -0.7996
C       2.1286  -1.9404  -0.1113
C       -2.5057  -1.3192  -0.4413
C       -2.4291  -1.1361  1.0651
N       1.4996  0.0605  -1.3040
N       1.1249  -1.4747  0.8921
N       -1.1198  -1.2717  -1.0280
N       -1.4619  -0.0508  1.3592
H       2.9119  -2.5192  0.3530
H       1.6227  -2.5825  -0.8232
H       -3.0642  -0.5114  -0.8853
H       -2.9880  -2.2501  -0.6946
H       1.7152  1.0355  -1.3983
H       1.2239  -0.2549  -2.2149
H       -1.8939  0.8563  1.2869
H       -1.1044  -0.1103  2.2940
H       -2.0788  -2.0406  1.5473
H       -3.4061  -0.9124  1.4679
H       0.6308  -2.2555  1.2825
H       1.5971  -1.0119  1.6512
H       3.3457  -0.9618  -1.6019
H       3.1999  -0.0818  -0.1012
H       -0.7468  -2.1989  -1.0931
H       -1.1865  -0.8978  -1.9553
