27

Co      0.0138  -0.0079  -0.0403
Cl      -1.0747  1.5655  -1.1759
Cl      1.1880  1.4911  1.3934
C       2.7313  -0.7116  -0.8593
C       2.2090  -2.0453  -0.0493
C       -2.6264  -1.3145  -0.4621
C       -2.4527  -1.2287  1.0876
N       1.4374  0.1421  -1.2850
N       1.0244  -1.4790  0.8309
N       -1.1822  -1.2634  -0.9490
N       -1.4890  -0.0264  1.2438
H       2.9189  -2.5896  0.5725
H       1.7748  -2.7401  -0.7621
H       -3.0895  -0.3937  -0.8037
H       -3.1560  -2.1666  -0.8911
H       1.6469  1.1341  -1.2640
H       1.1704  -0.0602  -2.2316
H       -1.9836  0.8357  1.0496
H       -1.1375  0.0727  2.1863
H       -1.9954  -2.1038  1.5318
H       -3.3768  -1.0271  1.6193
H       0.4234  -2.2036  1.1941
H       1.4301  -1.0129  1.6256
H       3.2840  -0.9278  -1.7738
H       3.3353  -0.0605  -0.2347
H       -0.7737  -2.1827  -0.8811
H       -1.1811  -1.0080  -1.9258
