27

Co      0.0457  0.0208  0.0315
Cl      -1.0992  1.6122  -1.2175
Cl      1.1003  1.3533  1.2917
C       2.6711  -0.7036  -0.8374
C       2.1174  -1.9075  -0.0923
C       -2.5172  -1.2606  -0.4413
C       -2.4071  -1.1800  1.0651
N       1.5195  0.0892  -1.3323
N       1.0525  -1.4722  0.8605
N       -1.1139  -1.3133  -0.9774
N       -1.5178  -0.0239  1.3434
H       2.8954  -2.4350  0.4249
H       1.6647  -2.5987  -0.7924
H       -2.9780  -0.3719  -0.8339
H       -3.0810  -2.1207  -0.7653
H       1.7508  1.0595  -1.4343
H       1.2126  -0.2230  -2.2345
H       -2.0013  0.8431  1.1564
H       -1.2249  0.0219  2.3029
H       -1.9504  -2.0765  1.4752
H       -3.3765  -1.0632  1.5332
H       0.4836  -2.2614  1.1186
H       1.4684  -1.1189  1.7035
H       3.3063  -1.0259  -1.6501
H       3.2507  -0.0781  -0.1813
H       -0.7789  -2.2546  -0.9490
H       -1.1300  -1.0231  -1.9371
