27

Co      -0.0517  -0.0287  -0.0267
Cl      -1.0841  1.6067  -1.2046
Cl      1.2246  1.5438  1.4284
C       2.7692  -0.7321  -0.8563
C       2.2482  -2.0687  -0.0647
C       -2.6169  -1.3605  -0.4767
C       -2.4394  -1.1856  1.0711
N       1.4437  0.1031  -1.2484
N       1.0452  -1.4812  0.7965
N       -1.1956  -1.2983  -1.0083
N       -1.4244  -0.0338  1.2623
H       2.9407  -2.6191  0.5851
H       1.8231  -2.7613  -0.7822
H       -3.1267  -0.4917  -0.8681
H       -3.1298  -2.2519  -0.8214
H       1.6371  1.0998  -1.2177
H       1.1844  -0.0914  -2.1996
H       -1.8807  0.8586  1.1847
H       -1.0172  -0.0405  2.1835
H       -2.0451  -2.0653  1.5565
H       -3.3613  -0.9204  1.5709
H       0.4841  -2.2114  1.2033
H       1.4596  -0.9740  1.5686
H       3.3098  -0.9251  -1.7870
H       3.3777  -0.0837  -0.2313
H       -0.7727  -2.2132  -0.9805
H       -1.2123  -1.0049  -1.9688
