27

Co      0.0117  0.0568  0.0074
Cl      -1.0402  1.5366  -1.1820
Cl      1.1029  1.3520  1.3030
C       2.5263  -0.6975  -0.7863
C       2.0421  -1.8186  -0.1185
C       -2.4574  -1.2922  -0.4269
C       -2.3747  -1.0832  1.0218
N       1.4941  0.0456  -1.3014
N       1.0806  -1.4867  0.8672
N       -1.1124  -1.2997  -1.0498
N       -1.4236  -0.0706  1.3535
H       2.9375  -2.2293  0.3381
H       1.6375  -2.5846  -0.7657
H       -3.0700  -0.5590  -0.9382
H       -2.9239  -2.2703  -0.5455
H       1.7746  0.9970  -1.4530
H       1.1795  -0.3024  -2.1899
H       -1.8413  0.8476  1.3479
H       -1.0618  -0.2024  2.2735
H       -2.0373  -2.0105  1.4681
H       -3.3590  -0.8842  1.4207
H       0.6043  -2.3251  1.1400
H       1.5096  -1.1124  1.6913
H       3.2419  -1.0326  -1.5289
H       3.0610  -0.1012  -0.0750
H       -0.7689  -2.2314  -1.0801
H       -1.2105  -0.9780  -1.9938
