27

Co      -0.0627  -0.0208  -0.0194
Cl      -1.0776  1.6117  -1.2135
Cl      1.2140  1.5277  1.4294
C       2.6704  -0.7127  -0.8166
C       2.1424  -1.9455  -0.1037
C       -2.5547  -1.3595  -0.4549
C       -2.4236  -1.1302  1.0413
N       1.5112  0.0642  -1.3511
N       1.0820  -1.5430  0.8802
N       -1.1726  -1.3001  -1.0301
N       -1.4018  -0.0765  1.2949
H       2.9462  -2.4768  0.3919
H       1.6923  -2.6272  -0.8091
H       -3.1480  -0.5858  -0.9313
H       -3.0142  -2.3207  -0.6660
H       1.7306  1.0463  -1.3753
H       1.2834  -0.1987  -2.2889
H       -1.8171  0.8452  1.3085
H       -0.9759  -0.1903  2.2015
H       -2.0907  -2.0376  1.5256
H       -3.3693  -0.8568  1.4845
H       0.6198  -2.3577  1.2338
H       1.5115  -1.0805  1.6646
H       3.3493  -0.9997  -1.6045
H       3.2016  -0.0740  -0.1324
H       -0.7686  -2.2191  -1.0396
H       -1.2250  -0.9848  -1.9780
