27

Co      0.0202  0.0207  0.0074
Cl      -1.0824  1.6009  -1.2149
Cl      1.1085  1.3633  1.2921
C       2.6135  -0.7119  -0.8536
C       2.1674  -1.9621  -0.0496
C       -2.4830  -1.2948  -0.4604
C       -2.3763  -1.1198  1.0697
N       1.4076  0.1234  -1.1711
N       1.0604  -1.4895  0.8398
N       -1.1105  -1.3258  -1.0794
N       -1.4372  0.0006  1.3634
H       3.0820  -2.3806  0.3779
H       1.6930  -2.7206  -0.6622
H       -2.9146  -0.4414  -0.9642
H       -3.1427  -2.1638  -0.5792
H       1.7360  1.0743  -1.2861
H       1.2619  -0.1501  -2.1382
H       -1.9669  0.8608  1.3254
H       -1.1636  -0.0602  2.3289
H       -1.9428  -1.9756  1.5748
H       -3.3896  -0.9990  1.4422
H       0.5812  -2.2952  1.2062
H       1.6165  -1.1872  1.6414
H       3.2545  -1.0806  -1.6441
H       3.1862  -0.0352  -0.2358
H       -0.8871  -2.3085  -1.1352
H       -1.2517  -1.0569  -2.0449
