27

Co      -0.0725  -0.0532  -0.0250
Cl      -1.0818  1.6236  -1.2143
Cl      1.2252  1.5593  1.4448
C       2.6950  -0.7281  -0.8496
C       2.1577  -1.9335  -0.0939
C       -2.5294  -1.3216  -0.4443
C       -2.4258  -1.1541  1.0582
N       1.5401  0.0704  -1.3681
N       1.0216  -1.5484  0.8262
N       -1.1360  -1.3034  -0.9887
N       -1.4454  -0.0652  1.3104
H       2.9488  -2.4096  0.4767
H       1.7719  -2.6662  -0.7882
H       -3.0652  -0.5023  -0.8941
H       -3.0245  -2.2449  -0.7172
H       1.7544  1.0589  -1.3277
H       1.3306  -0.1357  -2.3290
H       -1.8761  0.8382  1.2545
H       -1.0476  -0.1166  2.2311
H       -2.0579  -2.0537  1.5265
H       -3.3807  -0.9262  1.4970
H       0.5392  -2.3771  1.1162
H       1.3993  -1.1208  1.6575
H       3.3362  -1.0593  -1.6493
H       3.2661  -0.0852  -0.2011
H       -0.7412  -2.2280  -0.9621
H       -1.1661  -1.0228  -1.9505
