27

Co      0.0252  0.0622  -0.0048
Cl      -1.0576  1.5536  -1.1950
Cl      1.1298  1.3956  1.3237
C       2.6463  -0.7238  -0.8560
C       2.1669  -1.9627  -0.0592
C       -2.5188  -1.3440  -0.4542
C       -2.4472  -1.1361  1.0761
N       1.4416  0.0914  -1.2180
N       1.0337  -1.4638  0.7920
N       -1.1423  -1.3054  -1.0671
N       -1.4641  -0.0472  1.3850
H       3.0563  -2.3846  0.4093
H       1.7119  -2.7217  -0.6801
H       -2.9971  -0.5281  -0.9806
H       -3.1242  -2.2480  -0.5642
H       1.7817  1.0339  -1.4065
H       1.2907  -0.2476  -2.1623
H       -1.9798  0.8241  1.4032
H       -1.1741  -0.1654  2.3433
H       -2.0768  -2.0005  1.6179
H       -3.4672  -0.9580  1.4101
H       0.5154  -2.2596  1.1215
H       1.5726  -1.1913  1.6161
H       3.3207  -1.0998  -1.6171
H       3.1892  -0.0329  -0.2242
H       -0.8883  -2.2774  -1.1476
H       -1.3026  -1.0245  -2.0282
