27

Co      -0.0276  -0.0773  0.0164
Cl      -1.1030  1.6474  -1.2302
Cl      1.1718  1.4737  1.3788
C       2.6929  -0.6954  -0.8019
C       2.1255  -1.9411  -0.0608
C       -2.5506  -1.3242  -0.4741
C       -2.4029  -1.1727  1.0609
N       1.4745  0.1071  -1.3607
N       1.0522  -1.4759  0.8276
N       -1.1219  -1.2408  -0.9447
N       -1.3958  -0.0296  1.2470
H       2.8352  -2.6031  0.4384
H       1.6334  -2.5251  -0.8478
H       -3.0458  -0.4438  -0.8502
H       -3.0506  -2.2076  -0.8601
H       1.6564  1.0988  -1.3692
H       1.2730  -0.1585  -2.3068
H       -1.8406  0.8664  1.1294
H       -1.0189  -0.0098  2.1760
H       -2.0167  -2.0549  1.5574
H       -3.3340  -0.9059  1.5441
H       0.5218  -2.2433  1.1865
H       1.4641  -1.0126  1.6222
H       3.2563  -1.0713  -1.6503
H       3.3212  -0.0271  -0.2261
H       -0.7055  -2.1542  -0.9126
H       -1.0991  -0.9344  -1.8992
