27

Co      0.0031  0.0092  -0.0145
Cl      -1.0992  1.6086  -1.2089
Cl      1.2076  1.5024  1.4175
C       2.7219  -0.7327  -0.8115
C       2.1590  -1.9559  -0.1247
C       -2.6193  -1.3416  -0.4394
C       -2.4746  -1.1961  1.0609
N       1.5447  0.0321  -1.3265
N       1.1224  -1.4614  0.8376
N       -1.2319  -1.3268  -1.0233
N       -1.5304  -0.0709  1.3034
H       2.9238  -2.5246  0.3930
H       1.6832  -2.6138  -0.8379
H       -3.1569  -0.5031  -0.8552
H       -3.1340  -2.2492  -0.7132
H       1.7784  1.0073  -1.4378
H       1.2754  -0.2939  -2.2308
H       -1.9938  0.8133  1.1782
H       -1.1883  -0.0732  2.2488
H       -2.0626  -2.0934  1.5014
H       -3.4284  -1.0124  1.5291
H       0.6058  -2.2335  1.2163
H       1.5745  -0.9982  1.6048
H       3.4082  -0.9904  -1.6035
H       3.2430  -0.1019  -0.1056
H       -0.8693  -2.2652  -1.0475
H       -1.2909  -1.0072  -1.9721
