27

Co      -0.0474  0.0126  -0.0346
Cl      -1.1077  1.6301  -1.2235
Cl      1.1972  1.4816  1.3999
C       2.7889  -0.7164  -0.8221
C       2.2258  -2.0789  -0.0865
C       -2.6124  -1.3497  -0.4636
C       -2.4870  -1.2228  1.0897
N       1.5125  0.1014  -1.3692
N       1.1470  -1.5515  0.9307
N       -1.1692  -1.2331  -0.9498
N       -1.4986  -0.0491  1.3027
H       2.9473  -2.7570  0.3902
H       1.6786  -2.6492  -0.8472
H       -3.1232  -0.4659  -0.8377
H       -3.0900  -2.2366  -0.8740
H       1.7134  1.0925  -1.3866
H       1.3067  -0.1611  -2.3147
H       -1.9815  0.8339  1.2438
H       -1.0741  -0.0693  2.2191
H       -2.0763  -2.1069  1.5623
H       -3.4281  -0.9946  1.5731
H       0.6439  -2.3014  1.3904
H       1.6218  -1.0178  1.6542
H       3.4467  -0.9170  -1.6611
H       3.2994  -0.0552  -0.1354
H       -0.7099  -2.1365  -0.8764
H       -1.1686  -0.9733  -1.9192
