27

Co      0.0276  0.0799  -0.0161
Cl      -1.0647  1.5826  -1.2039
Cl      1.1365  1.4049  1.3453
C       2.6289  -0.7014  -0.7923
C       2.1241  -1.9594  -0.1088
C       -2.4821  -1.3178  -0.4476
C       -2.4352  -1.1490  1.0704
N       1.4557  0.0472  -1.3177
N       1.0645  -1.5149  0.8418
N       -1.1181  -1.4057  -1.0818
N       -1.5065  -0.0426  1.4578
H       2.9231  -2.4698  0.4026
H       1.6903  -2.6440  -0.8184
H       -2.9534  -0.4522  -0.8830
H       -3.0828  -2.1801  -0.6929
H       1.7053  1.0025  -1.5423
H       1.1255  -0.3646  -2.1839
H       -1.9589  0.8564  1.4645
H       -1.1243  -0.1819  2.3798
H       -2.0872  -2.0514  1.5516
H       -3.4446  -0.9714  1.4227
H       0.4768  -2.2879  1.1034
H       1.4801  -1.1571  1.6814
H       3.3312  -0.9259  -1.5798
H       3.1197  -0.0609  -0.0758
H       -0.7751  -2.3436  -1.0634
H       -1.2021  -1.1305  -2.0429
