27

Co      -0.0687  -0.0218  -0.0180
Cl      -1.0978  1.6273  -1.2080
Cl      1.2348  1.5531  1.4421
C       2.7960  -0.7238  -0.8410
C       2.2351  -2.0654  -0.0872
C       -2.6510  -1.3482  -0.4874
C       -2.4262  -1.2130  1.0531
N       1.4845  0.0834  -1.3178
N       1.0746  -1.5107  0.8387
N       -1.2073  -1.3039  -0.9504
N       -1.4227  -0.0435  1.2098
H       2.9236  -2.6935  0.4943
H       1.7578  -2.6921  -0.8394
H       -3.1357  -0.4554  -0.8669
H       -3.1701  -2.2248  -0.8639
H       1.6652  1.0825  -1.3187
H       1.2563  -0.1572  -2.2617
H       -1.9029  0.8376  1.1208
H       -1.0112  -0.0233  2.1306
H       -1.9743  -2.0975  1.4864
H       -3.3220  -0.9861  1.6260
H       0.5490  -2.2573  1.2643
H       1.5150  -1.0014  1.5945
H       3.4011  -0.9242  -1.7191
H       3.3477  -0.0613  -0.1837
H       -0.7753  -2.2183  -0.8202
H       -1.1651  -1.0940  -1.9387
