27

Co      0.0703  0.0320  0.0057
Cl      -1.0959  1.6153  -1.2191
Cl      1.1432  1.4204  1.3442
C       2.6252  -0.7078  -0.8082
C       2.1356  -1.9514  -0.0952
C       -2.5613  -1.3255  -0.4458
C       -2.4309  -1.1605  1.0581
N       1.4391  0.0689  -1.2481
N       1.0744  -1.4728  0.8370
N       -1.1852  -1.3868  -1.0637
N       -1.4817  -0.0516  1.3407
H       2.9313  -2.4408  0.4412
H       1.7042  -2.6662  -0.7826
H       -3.0579  -0.4716  -0.8689
H       -3.1344  -2.2075  -0.6890
H       1.6851  1.0331  -1.4064
H       1.0884  -0.2732  -2.1272
H       -1.9313  0.8394  1.2206
H       -1.1622  -0.0756  2.2898
H       -2.0507  -2.0614  1.5148
H       -3.3990  -0.9635  1.4927
H       0.4808  -2.2328  1.1214
H       1.4990  -1.0976  1.6643
H       3.2616  -0.9399  -1.6481
H       3.1833  -0.0869  -0.1254
H       -0.8662  -2.3336  -1.0969
H       -1.2606  -1.0614  -2.0113
