27

Co      0.0633  -0.0019  0.0155
Cl      -1.1229  1.6636  -1.2523
Cl      1.1296  1.4023  1.3280
C       2.5993  -0.7357  -0.7867
C       2.1167  -1.8821  -0.0769
C       -2.4908  -1.2993  -0.4239
C       -2.4412  -1.1629  1.0808
N       1.5056  0.0747  -1.2946
N       1.1253  -1.5118  0.8197
N       -1.1411  -1.3781  -1.0759
N       -1.5530  -0.0233  1.4304
H       2.9517  -2.3820  0.3870
H       1.6942  -2.5704  -0.7916
H       -2.9539  -0.4141  -0.8194
H       -3.1023  -2.1480  -0.7040
H       1.7865  1.0313  -1.4128
H       1.2106  -0.2410  -2.1980
H       -2.0054  0.8610  1.3076
H       -1.2401  -0.0640  2.3834
H       -2.0694  -2.0479  1.5767
H       -3.4618  -1.0046  1.4201
H       0.5611  -2.3130  1.0501
H       1.5089  -1.1526  1.6785
H       3.1789  -1.1451  -1.6065
H       3.2548  -0.1135  -0.1917
H       -0.8294  -2.3284  -1.1503
H       -1.2388  -1.0176  -2.0104
