27

Co      0.0125  0.0213  0.0211
Cl      0.0002  -2.2972  -0.2167
Cl      -0.0001  2.2656  0.2114
N       -1.4099  0.1564  -1.3449
N       -1.4164  -0.1636  1.3649
N       1.4287  0.1476  -1.3315
N       1.3566  -0.1544  1.2780
C       -2.7563  0.4048  -0.6759
C       -2.7566  -0.4012  0.6656
C       2.7809  0.4144  -0.6813
C       2.7320  -0.3957  0.6514
H       -1.2616  0.8862  -2.0139
H       -2.7843  1.4678  -0.5040
H       -3.6123  0.1262  -1.2703
H       -3.6174  -0.1420  1.2616
H       -2.7706  -1.4636  0.4814
H       -1.5527  0.6551  1.9394
H       -1.2742  -0.9290  1.9990
H       1.5467  -0.7124  -1.8327
H       1.2699  0.8583  -2.0243
H       3.6337  0.1251  -1.2735
H       2.8139  1.4807  -0.5131
H       2.7513  -1.4600  0.4562
H       3.5526  -0.1502  1.3019
H       1.1841  -0.9203  1.9064
H       1.4779  0.6599  1.8548
H       -1.5253  -0.6944  -1.8732
