27

Co      -0.0370  -0.0244  -0.0017
Cl      0.0035  -2.2530  -0.2116
Cl      0.0031  2.2867  0.2150
N       -1.4769  0.1448  -1.3576
N       -1.4377  -0.1399  1.3190
N       1.4713  0.1499  -1.3430
N       1.5105  -0.1446  1.3781
C       -2.7940  0.4084  -0.6211
C       -2.7697  -0.4003  0.6130
C       2.7973  0.4019  -0.6111
C       2.8220  -0.4082  0.6227
H       -1.2977  0.9053  -1.9869
H       -2.8724  1.4602  -0.4144
H       -3.6313  0.1052  -1.2301
H       -3.5871  -0.1056  1.2516
H       -2.8485  -1.4521  0.4023
H       -1.4931  0.7223  1.8282
H       -1.2675  -0.8820  1.9702
H       1.5511  -0.6893  -1.8891
H       1.3094  0.9160  -1.9690
H       3.6262  0.1123  -1.2372
H       2.8752  1.4538  -0.3965
H       2.9006  -1.4601  0.4188
H       3.6704  -0.1025  1.2194
H       1.3771  -0.8726  2.0556
H       1.5862  0.7288  1.8678
H       -1.5559  -0.6980  -1.8938
