27

Co      0.0000  0.0000  0.0000
Cl      0.0002  -2.2939  -0.2178
Cl      -0.0001  2.2940  0.2179
N       -1.4954  0.1324  -1.3416
N       -1.4954  -0.1326  1.3415
N       1.4954  0.1342  -1.3415
N       1.4954  -0.1340  1.3415
C       -2.8108  0.4174  -0.6075
C       -2.8111  -0.4167  0.6075
C       2.8109  0.4174  -0.6076
C       2.8110  -0.4163  0.6077
H       -1.3321  0.8618  -2.0111
H       -2.8624  1.4674  -0.3784
H       -3.6510  0.1491  -1.2309
H       -3.6509  -0.1480  1.2310
H       -2.8630  -1.4667  0.3784
H       -1.5784  0.7339  1.8401
H       -1.3326  -0.8623  2.0107
H       1.5768  -0.7345  -1.8413
H       1.3323  0.8633  -2.0095
H       3.6509  0.1469  -1.2296
H       2.8658  1.4655  -0.3809
H       2.8666  -1.4644  0.3809
H       3.6509  -0.1453  1.2298
H       1.3325  -0.8634  2.0092
H       1.5763  0.7346  1.8417
H       -1.5787  -0.7342  -1.8398
