27

Co      0.0000  0.0000  0.0000
Cl      0.0002  -2.2859  -0.2159
Cl      -0.0001  2.2859  0.2160
N       -1.4484  0.1436  -1.3261
N       -1.4484  -0.1437  1.3260
N       1.4484  0.1435  -1.3261
N       1.4484  -0.1432  1.3261
C       -2.7871  0.4190  -0.6500
C       -2.7873  -0.4183  0.6500
C       2.7871  0.4190  -0.6502
C       2.7873  -0.4179  0.6503
H       -1.2556  0.8789  -1.9777
H       -2.8229  1.4723  -0.4315
H       -3.5976  0.1728  -1.3189
H       -3.5976  -0.1717  1.3190
H       -2.8235  -1.4730  0.4315
H       -1.4999  0.7204  1.8322
H       -1.2560  -0.8795  1.9772
H       1.5001  -0.7210  -1.8315
H       1.2558  0.8786  -1.9779
H       3.5976  0.1724  -1.3190
H       2.8230  1.4738  -0.4321
H       2.8238  -1.4727  0.4322
H       3.5975  -0.1708  1.3192
H       1.2559  -0.8787  1.9776
H       1.4996  0.7211  1.8318
H       -1.5001  -0.7207  -1.8319
