27

Co      0.0000  0.0244  0.0017
Cl      0.0002  -2.3001  -0.2194
Cl      -0.0001  2.2665  0.2161
N       -1.4031  0.1387  -1.3272
N       -1.4031  -0.1439  1.3287
N       1.4031  0.1386  -1.3271
N       1.4031  -0.1434  1.3288
C       -2.7609  0.3979  -0.6529
C       -2.7612  -0.3972  0.6512
C       2.7610  0.3979  -0.6530
C       2.7611  -0.3968  0.6514
H       -1.3799  0.8626  -2.0417
H       -2.7044  1.4556  -0.4308
H       -3.5936  0.2317  -1.3244
H       -3.5913  -0.2340  1.3251
H       -2.7051  -1.4563  0.4258
H       -1.5259  0.6868  1.8846
H       -1.3618  -0.8968  2.0058
H       1.5149  -0.7194  -1.8401
H       1.3801  0.8623  -2.0419
H       3.5935  0.2313  -1.3246
H       2.7045  1.4570  -0.4314
H       2.7054  -1.4559  0.4264
H       3.5935  -0.2331  1.3230
H       1.3618  -0.8960  2.0062
H       1.5279  0.6875  1.8843
H       -1.5149  -0.7191  -1.8405
