27

Co      0.0000  0.0000  0.0000
Cl      0.0002  -2.2956  -0.2141
Cl      -0.0001  2.2957  0.2142
N       -1.5133  0.1386  -1.3620
N       -1.5133  -0.1387  1.3619
N       1.5133  0.1386  -1.3620
N       1.5133  -0.1383  1.3620
C       -2.8011  0.3987  -0.6399
C       -2.8013  -0.3980  0.6399
C       2.8011  0.3987  -0.6401
C       2.8013  -0.3976  0.6401
H       -1.3139  0.9430  -1.9340
H       -2.8313  1.4534  -0.4289
H       -3.6498  0.1528  -1.2592
H       -3.6497  -0.1517  1.2594
H       -2.8319  -1.4527  0.4289
H       -1.5759  0.6692  1.9579
H       -1.3143  -0.9435  1.9335
H       1.5761  -0.6698  -1.9571
H       1.3141  0.9427  -1.9365
H       3.6497  0.1502  -1.2594
H       2.8314  1.4534  -0.4295
H       2.8322  -1.4523  0.4295
H       3.6497  -0.1486  1.2595
H       1.3164  -0.9427  1.9361
H       1.5756  0.6699  1.9575
H       -1.5761  -0.6695  -1.9575
