27

Co      0.0000  0.0000  0.0000
Cl      0.0002  -2.2734  -0.2132
Cl      -0.0001  2.2735  0.2133
N       -1.5327  0.1517  -1.3976
N       -1.4934  -0.1518  1.3607
N       1.4934  0.1516  -1.3607
N       1.5327  -0.1514  1.3976
C       -2.7918  0.4123  -0.6429
C       -2.7675  -0.4043  0.6330
C       2.7673  0.4049  -0.6332
C       2.7920  -0.4112  0.6431
H       -1.2531  0.9057  -2.0005
H       -2.8670  1.4627  -0.4218
H       -3.6535  0.1228  -1.2262
H       -3.6115  -0.1266  1.2438
H       -2.8431  -1.4546  0.4047
H       -1.4244  0.7257  1.8538
H       -1.2045  -0.9160  1.9485
H       1.4224  -0.7263  -1.8531
H       1.2042  0.9152  -1.9492
H       3.6093  0.1274  -1.2460
H       2.8426  1.4553  -0.4053
H       2.8679  -1.4616  0.4225
H       3.6534  -0.1209  1.2265
H       1.2535  -0.9054  2.0004
H       1.4710  0.7337  1.8755
H       -1.4715  -0.7334  -1.8755
