27

Co      -0.0370  0.0000  0.0000
Cl      0.0035  -2.3116  -0.2168
Cl      0.0031  2.3117  0.2169
N       -1.4738  0.1431  -1.3534
N       -1.4345  -0.1432  1.3165
N       1.4681  0.1482  -1.3388
N       1.5073  -0.1479  1.3756
C       -2.7933  0.4075  -0.6220
C       -2.7689  -0.3994  0.6121
C       2.7966  0.4011  -0.6119
C       2.8213  -0.4074  0.6218
H       -1.3028  0.8892  -2.0004
H       -2.8740  1.4593  -0.4186
H       -3.6281  0.0993  -1.2343
H       -3.5839  -0.1031  1.2541
H       -2.8502  -1.4513  0.4014
H       -1.4941  0.7055  1.8476
H       -1.2542  -0.8995  1.9484
H       1.5386  -0.7046  -1.8647
H       1.3145  0.8999  -1.9825
H       3.6230  0.1065  -1.2414
H       2.8769  1.4530  -0.4007
H       2.9023  -1.4593  0.4179
H       3.6671  -0.1000  1.2219
H       1.3638  -0.8902  2.0337
H       1.5872  0.7120  1.8872
H       -1.5435  -0.7133  -1.8694
