27

Co      0.0000  0.0244  0.0017
Cl      0.0002  -2.3001  -0.2194
Cl      -0.0001  2.2665  0.2161
N       -1.4019  0.1380  -1.3003
N       -1.4411  -0.1431  1.3387
N       1.4412  0.1379  -1.3371
N       1.4018  -0.1426  1.3019
C       -2.7239  0.3989  -0.6375
C       -2.7486  -0.4055  0.6456
C       2.7485  0.4062  -0.6474
C       2.7241  -0.3977  0.6360
H       -1.3403  0.8624  -2.0031
H       -2.7446  1.4579  -0.4374
H       -3.5364  0.1622  -1.3049
H       -3.5782  -0.1596  1.2859
H       -2.7698  -1.4646  0.4496
H       -1.6272  0.6797  1.9001
H       -1.3713  -0.8867  2.0188
H       1.6162  -0.7123  -1.8556
H       1.3896  0.8522  -2.0549
H       3.5805  0.1569  -1.2854
H       2.7693  1.4653  -0.4553
H       2.7456  -1.4568  0.4331
H       3.5363  -0.1636  1.3035
H       1.3222  -0.8958  1.9677
H       1.5801  0.6731  1.8776
H       -1.5671  -0.7047  -1.8339
