27

Co      0.0000  0.0000  0.0000
Cl      0.0002  -2.2930  -0.2159
Cl      -0.0001  2.2931  0.2160
N       -1.4931  0.1475  -1.3819
N       -1.4931  -0.1476  1.3818
N       1.4931  0.1474  -1.3818
N       1.4930  -0.1472  1.3818
C       -2.7617  0.4062  -0.6331
C       -2.7619  -0.4055  0.6331
C       2.7618  0.4062  -0.6332
C       2.7619  -0.4051  0.6333
H       -1.2853  0.9127  -1.9896
H       -2.8406  1.4542  -0.4027
H       -3.5669  0.1401  -1.2997
H       -3.5691  -0.1390  1.2976
H       -2.8413  -1.4534  0.4027
H       -1.4702  0.7199  1.8884
H       -1.2857  -0.9133  1.9891
H       1.4682  -0.7205  -1.8877
H       1.2855  0.9124  -1.9898
H       3.5668  0.1397  -1.2999
H       2.8407  1.4542  -0.4033
H       2.8416  -1.4531  0.4033
H       3.5668  -0.1381  1.3000
H       1.2856  -0.9125  1.9895
H       1.4677  0.7206  1.8881
H       -1.4682  -0.7203  -1.8881
