27

Co      0.0245  0.0000  0.0000
Cl      -0.0030  -2.2637  -0.2151
Cl      -0.0034  2.2637  0.2152
N       -1.4432  0.1414  -1.3030
N       -1.4432  -0.1416  1.3029
N       1.4301  0.1430  -1.3307
N       1.4301  -0.1427  1.3307
C       -2.7678  0.4042  -0.6391
C       -2.7681  -0.4035  0.6391
C       2.7401  0.4009  -0.6441
C       2.7403  -0.3998  0.6442
H       -1.3815  0.8696  -2.0036
H       -2.7946  1.4632  -0.4403
H       -3.5826  0.1612  -1.3017
H       -3.5804  -0.1601  1.3041
H       -2.7953  -1.4625  0.4403
H       -1.6184  0.6943  1.8441
H       -1.3819  -0.8701  2.0032
H       1.6062  -0.6851  -1.8859
H       1.3620  0.8840  -2.0137
H       3.5663  0.1559  -1.2904
H       2.7621  1.4600  -0.4491
H       2.7629  -1.4589  0.4492
H       3.5662  -0.1544  1.2905
H       1.3622  -0.8841  2.0133
H       1.6057  0.6852  1.8863
H       -1.6209  -0.6946  -1.8438
