27

Co      -0.0370  0.0031  -0.0194
Cl      0.0035  -2.2967  -0.2131
Cl      0.0031  2.2947  0.2152
N       -1.5115  0.1527  -1.3713
N       -1.5049  -0.1508  1.3528
N       1.5058  0.1578  -1.3567
N       1.5777  -0.1555  1.4119
C       -2.7827  0.4059  -0.6338
C       -2.7829  -0.4080  0.6424
C       2.7860  0.3995  -0.6238
C       2.8353  -0.4160  0.6521
H       -1.2256  0.9177  -1.9617
H       -2.8577  1.4552  -0.4077
H       -3.6283  0.1239  -1.2421
H       -3.6232  -0.1093  1.2494
H       -2.8726  -1.4594  0.4253
H       -1.4280  0.7302  1.8400
H       -1.1953  -0.9096  1.9403
H       1.4376  -0.7160  -1.8571
H       1.2373  0.9284  -1.9438
H       3.6232  0.1310  -1.2506
H       2.8591  1.4488  -0.3898
H       2.9233  -1.4674  0.4418
H       3.7042  -0.1061  1.2209
H       1.3049  -0.9002  2.0257
H       1.5189  0.7367  1.8796
H       -1.4424  -0.7236  -1.8618
