27

Co      0.0125  0.0000  0.0000
Cl      0.0002  -2.2673  -0.2151
Cl      -0.0001  2.2673  0.2152
N       -1.4625  0.1505  -1.3706
N       -1.4625  -0.1506  1.3705
N       1.4420  0.1436  -1.3205
N       1.4420  -0.1433  1.3205
C       -2.7516  0.4026  -0.6511
C       -2.7518  -0.4019  0.6511
C       2.7516  0.4049  -0.6467
C       2.7518  -0.4038  0.6467
H       -1.3337  0.8896  -2.0384
H       -2.7592  1.4641  -0.4599
H       -3.6451  0.1479  -1.2060
H       -3.6428  -0.1468  1.2084
H       -2.7599  -1.4634  0.4599
H       -1.6026  0.6886  1.9101
H       -1.3342  -0.8902  2.0379
H       1.5755  -0.7006  -1.8491
H       1.2930  0.8734  -1.9954
H       3.6223  0.1498  -1.2289
H       2.7662  1.4664  -0.4537
H       2.7670  -1.4653  0.4537
H       3.6223  -0.1482  1.2290
H       1.2931  -0.8735  1.9950
H       1.5750  0.7007  1.8495
H       -1.6051  -0.6890  -1.9098
