27

Co      0.0000  0.0000  0.0000
Cl      0.0002  -2.3055  -0.2186
Cl      -0.0001  2.3055  0.2187
N       -1.4451  0.1587  -1.3248
N       -1.4451  -0.1588  1.3247
N       1.4452  0.1586  -1.3247
N       1.4451  -0.1583  1.3247
C       -2.7487  0.4108  -0.6396
C       -2.7490  -0.4101  0.6396
C       2.7488  0.4108  -0.6397
C       2.7490  -0.4097  0.6398
H       -1.2942  0.8487  -2.0383
H       -2.8265  1.4655  -0.4330
H       -3.5657  0.1203  -1.2813
H       -3.5656  -0.1192  1.2814
H       -2.8271  -1.4648  0.4330
H       -1.4878  0.7454  1.7656
H       -1.2947  -0.8492  2.0378
H       1.4880  -0.7460  -1.7648
H       1.2944  0.8484  -2.0363
H       3.5656  0.1221  -1.2814
H       2.8266  1.4655  -0.4336
H       2.8274  -1.4644  0.4337
H       3.5656  -0.1206  1.2816
H       1.2924  -0.8485  2.0360
H       1.4875  0.7461  1.7652
H       -1.4880  -0.7457  -1.7652
