27

Co      0.0000  0.0244  0.0017
Cl      0.0002  -2.2841  -0.2167
Cl      -0.0001  2.2505  0.2135
N       -1.4339  0.1453  -1.3532
N       -1.4339  -0.1505  1.3548
N       1.4339  0.1452  -1.3531
N       1.4338  -0.1500  1.3548
C       -2.7763  0.3992  -0.6602
C       -2.7766  -0.3984  0.6585
C       2.7764  0.3991  -0.6603
C       2.7766  -0.3980  0.6587
H       -1.3376  0.8700  -2.0472
H       -2.7101  1.4592  -0.4438
H       -3.6689  0.2193  -1.2476
H       -3.6666  -0.2216  1.2483
H       -2.7108  -1.4599  0.4388
H       -1.5178  0.6890  1.8969
H       -1.3195  -0.9042  2.0114
H       1.5068  -0.7216  -1.8524
H       1.3378  0.8697  -2.0474
H       3.6688  0.2189  -1.2477
H       2.7102  1.4607  -0.4444
H       2.7111  -1.4596  0.4394
H       3.6688  -0.2207  1.2462
H       1.3194  -0.9034  2.0117
H       1.5198  0.6897  1.8965
H       -1.5069  -0.7214  -1.8528
