27

Co      -0.0370  0.0031  -0.0194
Cl      0.0035  -2.2709  -0.2122
Cl      0.0031  2.2689  0.2144
N       -1.4553  0.1476  -1.3234
N       -1.4880  -0.1457  1.3417
N       1.4888  0.1527  -1.3456
N       1.5215  -0.1504  1.3640
C       -2.7580  0.3996  -0.6307
C       -2.7828  -0.4091  0.6491
C       2.7859  0.4005  -0.6305
C       2.8106  -0.4096  0.6490
H       -1.2746  0.9054  -1.9548
H       -2.8064  1.4532  -0.4138
H       -3.5794  0.1452  -1.2802
H       -3.6162  -0.1257  1.2702
H       -2.8459  -1.4648  0.4486
H       -1.5365  0.7143  1.8526
H       -1.2935  -0.8875  1.9850
H       1.5483  -0.7000  -1.8697
H       1.3354  0.9063  -1.9885
H       3.6185  0.1474  -1.2691
H       2.8323  1.4543  -0.4131
H       2.8720  -1.4654  0.4479
H       3.6552  -0.1274  1.2590
H       1.3540  -0.8880  2.0189
H       1.5805  0.7134  1.8701
H       -1.5040  -0.7003  -1.8523
