27

Co      0.0000  0.0000  0.0000
Cl      0.0002  -2.2699  -0.2132
Cl      -0.0001  2.2699  0.2133
N       -1.4927  0.1470  -1.3437
N       -1.4927  -0.1471  1.3436
N       1.4927  0.1469  -1.3437
N       1.4927  -0.1466  1.3437
C       -2.7777  0.4225  -0.6419
C       -2.7779  -0.4217  0.6419
C       2.7778  0.4224  -0.6421
C       2.7779  -0.4213  0.6421
H       -1.2709  0.8860  -1.9826
H       -2.8884  1.4772  -0.4500
H       -3.5893  0.1005  -1.2781
H       -3.5892  -0.0994  1.2783
H       -2.8891  -1.4764  0.4500
H       -1.6049  0.6998  1.8707
H       -1.2713  -0.8865  1.9821
H       1.6052  -0.7005  -1.8700
H       1.2711  0.8857  -1.9828
H       3.5892  0.1002  -1.2782
H       2.8885  1.4772  -0.4506
H       2.8893  -1.4761  0.4507
H       3.5892  -0.0986  1.2784
H       1.2712  -0.8858  1.9825
H       1.6046  0.7005  1.8704
H       -1.6052  -0.7002  -1.8704
