27

Co      0.0000  0.0000  0.0000
Cl      0.0002  -2.3090  -0.2186
Cl      -0.0001  2.3091  0.2187
N       -1.4236  0.1617  -1.3552
N       -1.4236  -0.1618  1.3551
N       1.4236  0.1616  -1.3551
N       1.4236  -0.1613  1.3551
C       -2.7734  0.4003  -0.6567
C       -2.7736  -0.3996  0.6567
C       2.7735  0.4003  -0.6568
C       2.7736  -0.3992  0.6569
H       -1.4235  0.8592  -2.1039
H       -2.7412  1.4580  -0.4399
H       -3.6083  0.2090  -1.3177
H       -3.6060  -0.2079  1.3202
H       -2.7419  -1.4586  0.4399
H       -1.5306  0.7187  1.8302
H       -1.4240  -0.8598  2.1034
H       1.5331  -0.7193  -1.8294
H       1.4237  0.8589  -2.1019
H       3.6083  0.2108  -1.3179
H       2.7413  1.4594  -0.4405
H       2.7422  -1.4583  0.4405
H       3.6082  -0.2093  1.3180
H       1.4217  -0.8590  2.1016
H       1.5326  0.7194  1.8298
H       -1.5332  -0.7191  -1.8298
