27

Co      -0.0370  0.0031  -0.0194
Cl      0.0035  -2.2931  -0.2131
Cl      0.0031  2.2911  0.2152
N       -1.5213  0.1341  -1.3297
N       -1.5148  -0.1321  1.3112
N       1.5157  0.1392  -1.3151
N       1.5876  -0.1369  1.3704
C       -2.7625  0.4073  -0.6187
C       -2.7627  -0.4094  0.6273
C       2.7658  0.4009  -0.6087
C       2.8151  -0.4173  0.6370
H       -1.1696  0.9361  -1.8622
H       -2.8964  1.4580  -0.4139
H       -3.5913  0.0695  -1.2237
H       -3.5861  -0.0549  1.2310
H       -2.9114  -1.4608  0.4315
H       -1.5027  0.7001  1.8727
H       -1.1394  -0.9281  1.8408
H       1.5122  -0.6859  -1.8898
H       1.1813  0.9469  -1.8465
H       3.5862  0.0744  -1.2322
H       2.8979  1.4502  -0.3960
H       2.9621  -1.4688  0.4480
H       3.6671  -0.0495  1.2024
H       1.2512  -0.9187  1.9284
H       1.5935  0.7066  1.9123
H       -1.5170  -0.6935  -1.8945
