27

Co      0.0370  0.0000  0.0000
Cl      -0.0030  -2.3036  -0.2148
Cl      -0.0034  2.3036  0.2149
N       -1.4457  0.1631  -1.3266
N       -1.4457  -0.1632  1.3265
N       1.4122  0.1559  -1.3042
N       1.4121  -0.1556  1.3043
C       -2.7690  0.3915  -0.6556
C       -2.7692  -0.3908  0.6556
C       2.7413  0.3905  -0.6561
C       2.7414  -0.3894  0.6562
H       -1.3176  0.9090  -1.9865
H       -2.8193  1.4548  -0.4869
H       -3.6299  0.0951  -1.2376
H       -3.6276  -0.0940  1.2400
H       -2.8200  -1.4541  0.4870
H       -1.5686  0.6719  1.8767
H       -1.3181  -0.9096  1.9860
H       1.5286  -0.6741  -1.8563
H       1.2572  0.9057  -1.9552
H       3.5908  0.0940  -1.2490
H       2.7917  1.4557  -0.4870
H       2.7925  -1.4546  0.4871
H       3.5907  -0.0924  1.2492
H       1.2574  -0.9057  1.9548
H       1.5281  0.6741  1.8567
H       -1.5711  -0.6722  -1.8764
