27

Co      0.0125  -0.0031  0.0194
Cl      0.0002  -2.3044  -0.2196
Cl      -0.0001  2.3065  0.2177
N       -1.4543  0.1456  -1.3362
N       -1.4609  -0.1478  1.3545
N       1.4731  0.1387  -1.3229
N       1.4011  -0.1405  1.2677
C       -2.7509  0.4067  -0.6439
C       -2.7512  -0.4031  0.6353
C       2.7756  0.4163  -0.6493
C       2.7266  -0.3976  0.6212
H       -1.2728  0.8856  -1.9831
H       -2.8081  1.4624  -0.4386
H       -3.5822  0.1323  -1.2724
H       -3.5896  -0.1447  1.2631
H       -2.7944  -1.4568  0.4210
H       -1.5218  0.7097  1.8715
H       -1.3040  -0.8947  2.0035
H       1.5252  -0.7350  -1.8105
H       1.2811  0.8595  -1.9916
H       3.6036  0.1293  -1.2757
H       2.8396  1.4720  -0.4496
H       2.7770  -1.4513  0.3977
H       3.5226  -0.1511  1.3057
H       1.2138  -0.8878  1.9091
H       1.4429  0.7144  1.7888
H       -1.5057  -0.7170  -1.8491
