27

Co      0.0125  0.0244  0.0017
Cl      0.0002  -2.3063  -0.2176
Cl      -0.0001  2.2727  0.2143
N       -1.4364  0.1513  -1.3539
N       -1.4757  -0.1565  1.3923
N       1.4552  0.1444  -1.3405
N       1.4159  -0.1491  1.3054
C       -2.7811  0.3935  -0.6575
C       -2.8059  -0.4001  0.6656
C       2.8058  0.4031  -0.6629
C       2.7814  -0.3946  0.6515
H       -1.3455  0.8863  -2.0362
H       -2.7175  1.4536  -0.4412
H       -3.6710  0.2138  -1.2511
H       -3.7128  -0.2111  1.2322
H       -2.7427  -1.4616  0.4533
H       -1.5665  0.6836  1.9344
H       -1.3765  -0.9107  2.0519
H       1.5260  -0.7276  -1.8296
H       1.3538  0.8602  -2.0448
H       3.6923  0.2108  -1.2544
H       2.7490  1.4646  -0.4522
H       2.7253  -1.4562  0.4300
H       3.6481  -0.2175  1.2725
H       1.2863  -0.9038  1.9575
H       1.4899  0.6883  1.8516
H       -1.5065  -0.7086  -1.8682
