27

Co      -0.0125  0.0031  -0.0194
Cl      0.0002  -2.2905  -0.2149
Cl      -0.0001  2.2885  0.2170
N       -1.4659  0.1409  -1.3431
N       -1.4593  -0.1389  1.3246
N       1.4471  0.1476  -1.3563
N       1.5191  -0.1453  1.4115
C       -2.7756  0.4096  -0.6061
C       -2.7758  -0.4117  0.6147
C       2.7511  0.3999  -0.6010
C       2.8003  -0.4164  0.6293
H       -1.1916  0.8918  -1.9545
H       -2.8723  1.4560  -0.3749
H       -3.6084  0.1034  -1.2198
H       -3.6032  -0.0888  1.2271
H       -2.8873  -1.4602  0.3925
H       -1.4020  0.7512  1.7975
H       -1.1614  -0.8837  1.9332
H       1.3968  -0.7272  -1.8571
H       1.1837  0.9172  -1.9464
H       3.5869  0.1057  -1.2154
H       2.8425  1.4464  -0.3652
H       2.9067  -1.4649  0.4171
H       3.6678  -0.0808  1.1857
H       1.2514  -0.8891  2.0283
H       1.4781  0.7479  1.8796
H       -1.4163  -0.7446  -1.8193
