27

Co      0.0000  -0.0244  -0.0017
Cl      0.0002  -2.2745  -0.2180
Cl      -0.0001  2.3082  0.2214
N       -1.5010  0.1342  -1.3369
N       -1.5010  -0.1292  1.3351
N       1.5010  0.1360  -1.3368
N       1.5010  -0.1306  1.3352
C       -2.7397  0.4229  -0.6190
C       -2.7399  -0.4222  0.6207
C       2.7398  0.4229  -0.6192
C       2.7399  -0.4218  0.6209
H       -1.2813  0.8702  -1.9816
H       -2.8361  1.4771  -0.4105
H       -3.5756  0.1184  -1.2281
H       -3.5755  -0.1139  1.2299
H       -2.8368  -1.4750  0.4156
H       -1.6196  0.7424  1.8201
H       -1.3002  -0.8371  2.0165
H       1.6314  -0.7110  -1.8651
H       1.2815  0.8718  -1.9800
H       3.5755  0.1162  -1.2282
H       2.8381  1.4739  -0.4130
H       2.8389  -1.4728  0.4181
H       3.5755  -0.1112  1.2301
H       1.3001  -0.8382  2.0150
H       1.6175  0.7431  1.8217
H       -1.6333  -0.7107  -1.8636
