27

Co      0.0000  0.0000  0.0000
Cl      0.0002  -2.2833  -0.2177
Cl      -0.0001  2.2833  0.2178
N       -1.4213  0.1392  -1.3348
N       -1.4213  -0.1394  1.3347
N       1.4213  0.1392  -1.3347
N       1.4213  -0.1389  1.3347
C       -2.7522  0.4199  -0.6500
C       -2.7524  -0.4192  0.6500
C       2.7523  0.4199  -0.6502
C       2.7524  -0.4188  0.6503
H       -1.2276  0.8728  -1.9872
H       -2.7785  1.4732  -0.4280
H       -3.5688  0.1823  -1.3120
H       -3.5687  -0.1812  1.3121
H       -2.7791  -1.4739  0.4281
H       -1.4754  0.7265  1.8382
H       -1.2280  -0.8734  1.9867
H       1.4756  -0.7271  -1.8375
H       1.2278  0.8725  -1.9874
H       3.5687  0.1819  -1.3121
H       2.7786  1.4746  -0.4287
H       2.7794  -1.4735  0.4287
H       3.5687  -0.1803  1.3123
H       1.2279  -0.8726  1.9871
H       1.4751  0.7272  1.8379
H       -1.4756  -0.7268  -1.8379
