27

Co      0.0370  -0.0031  0.0194
Cl      -0.0030  -2.3080  -0.2196
Cl      -0.0034  2.3101  0.2177
N       -1.4577  0.1470  -1.3442
N       -1.4643  -0.1492  1.3625
N       1.4635  0.1417  -1.3587
N       1.3914  -0.1435  1.3035
C       -2.7647  0.4024  -0.6481
C       -2.7649  -0.3988  0.6395
C       2.7615  0.4087  -0.6584
C       2.7126  -0.3901  0.6302
H       -1.3969  0.8836  -2.0310
H       -2.7917  1.4625  -0.4566
H       -3.5979  0.1516  -1.2852
H       -3.6030  -0.1640  1.2782
H       -2.7780  -1.4569  0.4390
H       -1.6488  0.6772  1.9193
H       -1.4280  -0.8927  2.0514
H       1.6397  -0.6927  -1.9007
H       1.3856  0.8722  -2.0493
H       3.6029  0.1436  -1.2770
H       2.7905  1.4689  -0.4757
H       2.7279  -1.4482  0.4238
H       3.5219  -0.1654  1.3070
H       1.3182  -0.9005  1.9668
H       1.5574  0.6721  1.8790
H       -1.6349  -0.6845  -1.8969
