27

Co      0.0000  0.0000  0.0000
Cl      0.0002  -2.2699  -0.2132
Cl      -0.0001  2.2699  0.2133
N       -1.5045  0.1338  -1.3461
N       -1.5045  -0.1340  1.3460
N       1.5045  0.1338  -1.3460
N       1.5045  -0.1335  1.3460
C       -2.7841  0.4054  -0.6334
C       -2.7844  -0.4047  0.6333
C       2.7842  0.4054  -0.6335
C       2.7844  -0.4043  0.6336
H       -1.1877  0.9342  -1.8880
H       -2.8410  1.4558  -0.4042
H       -3.6295  0.1428  -1.2470
H       -3.6317  -0.1417  1.2449
H       -2.8416  -1.4551  0.4042
H       -1.4469  0.7100  1.8931
H       -1.1881  -0.9347  1.8876
H       1.4448  -0.7106  -1.8924
H       1.1879  0.9339  -1.8905
H       3.6295  0.1402  -1.2471
H       2.8411  1.4558  -0.4049
H       2.8419  -1.4547  0.4049
H       3.6294  -0.1386  1.2473
H       1.1902  -0.9340  1.8902
H       1.4443  0.7107  1.8928
H       -1.4449  -0.7103  -1.8928
