27

Co      0.0370  -0.0031  0.0194
Cl      -0.0030  -2.2644  -0.2123
Cl      -0.0034  2.2665  0.2104
N       -1.4564  0.1636  -1.3494
N       -1.4630  -0.1658  1.3677
N       1.4621  0.1565  -1.3639
N       1.3901  -0.1583  1.3087
C       -2.7673  0.3926  -0.6623
C       -2.7676  -0.3890  0.6537
C       2.7641  0.3989  -0.6726
C       2.7152  -0.3802  0.6444
H       -1.3207  0.9136  -2.0006
H       -2.8164  1.4570  -0.4965
H       -3.6402  0.0949  -1.2258
H       -3.6453  -0.1073  1.2188
H       -2.8028  -1.4513  0.4789
H       -1.5957  0.6619  1.9262
H       -1.3518  -0.9227  2.0210
H       1.5885  -0.6774  -1.9058
H       1.3094  0.9004  -2.0208
H       3.6453  0.0888  -1.2176
H       2.8134  1.4652  -0.5137
H       2.7508  -1.4445  0.4618
H       3.5642  -0.1106  1.2476
H       1.2421  -0.9287  1.9382
H       1.5061  0.6569  1.8840
H       -1.5818  -0.6693  -1.9038
