27

Co      0.0370  0.0213  0.0211
Cl      -0.0030  -2.3249  -0.2213
Cl      -0.0034  2.2933  0.2160
N       -1.4485  0.1455  -1.3518
N       -1.4550  -0.1527  1.3718
N       1.4542  0.1402  -1.3663
N       1.3822  -0.1470  1.3128
C       -2.7830  0.4175  -0.6664
C       -2.7833  -0.4139  0.6562
C       2.7798  0.4238  -0.6767
C       2.7309  -0.4052  0.6469
H       -1.3052  0.8563  -2.0450
H       -2.7816  1.4786  -0.4730
H       -3.6534  0.1730  -1.2586
H       -3.6585  -0.1887  1.2499
H       -2.7679  -1.4744  0.4504
H       -1.6051  0.6775  1.9236
H       -1.3178  -0.8991  2.0301
H       1.5825  -0.7250  -1.8613
H       1.2939  0.8449  -2.0633
H       3.6585  0.1650  -1.2504
H       2.7804  1.4864  -0.4922
H       2.7178  -1.4657  0.4352
H       3.5774  -0.1901  1.2787
H       1.2081  -0.9069  1.9454
H       1.5137  0.6725  1.8833
H       -1.5777  -0.7168  -1.8574
