27

Co      0.0000  0.0244  0.0017
Cl      0.0002  -2.3027  -0.2176
Cl      -0.0001  2.2691  0.2143
N       -1.4768  0.1468  -1.3111
N       -1.4768  -0.1519  1.3127
N       1.4768  0.1467  -1.3111
N       1.4768  -0.1514  1.3128
C       -2.7573  0.4064  -0.6611
C       -2.7576  -0.4057  0.6594
C       2.7574  0.4063  -0.6612
C       2.7575  -0.4052  0.6596
H       -1.2944  0.8706  -1.9783
H       -2.7914  1.4639  -0.4527
H       -3.5791  0.1659  -1.3160
H       -3.5791  -0.1682  1.3145
H       -2.7920  -1.4632  0.4476
H       -1.5164  0.6973  1.8413
H       -1.2763  -0.9048  1.9425
H       1.5032  -0.7299  -1.7968
H       1.2946  0.8703  -1.9786
H       3.5791  0.1655  -1.3176
H       2.7901  1.4639  -0.4533
H       2.7909  -1.4628  0.4483
H       3.5790  -0.1673  1.3160
H       1.2762  -0.9040  1.9429
H       1.5161  0.6980  1.8409
H       -1.5032  -0.7297  -1.7972
