27

Co      -0.0125  0.0031  -0.0194
Cl      0.0002  -2.2931  -0.2131
Cl      -0.0001  2.2911  0.2152
N       -1.4952  0.1297  -1.3300
N       -1.4886  -0.1278  1.3115
N       1.4764  0.1365  -1.3432
N       1.5484  -0.1341  1.3984
C       -2.8126  0.4043  -0.6039
C       -2.8129  -0.4064  0.6125
C       2.7882  0.3946  -0.5988
C       2.8374  -0.4111  0.6271
H       -1.1931  0.9311  -1.8786
H       -2.8946  1.4507  -0.3717
H       -3.6460  0.1138  -1.2245
H       -3.6409  -0.0992  1.2318
H       -2.9096  -1.4549  0.3893
H       -1.4376  0.7186  1.8556
H       -1.1628  -0.9230  1.8573
H       1.4324  -0.6945  -1.9153
H       1.1851  0.9565  -1.8728
H       3.6246  0.1139  -1.2201
H       2.8648  1.4411  -0.3620
H       2.9290  -1.4597  0.4140
H       3.7055  -0.0890  1.1903
H       1.2550  -0.9284  1.9546
H       1.5137  0.7153  1.9377
H       -1.4519  -0.7120  -1.8774
