27

Co      0.0370  0.0000  0.0000
Cl      -0.0030  -2.2673  -0.2151
Cl      -0.0034  2.2673  0.2152
N       -1.4727  0.1517  -1.3394
N       -1.5120  -0.1518  1.3761
N       1.4785  0.1464  -1.3539
N       1.4392  -0.1462  1.3170
C       -2.7395  0.4028  -0.6576
C       -2.7643  -0.4095  0.6674
C       2.7363  0.4092  -0.6679
C       2.7119  -0.4007  0.6581
H       -1.2933  0.8991  -1.9788
H       -2.7606  1.4604  -0.4407
H       -3.5745  0.1806  -1.3010
H       -3.6187  -0.1746  1.2816
H       -2.7858  -1.4670  0.4579
H       -1.5601  0.7124  1.8800
H       -1.3428  -0.8898  2.0298
H       1.5161  -0.7146  -1.8615
H       1.2820  0.8878  -1.9971
H       3.5796  0.1727  -1.2943
H       2.7580  1.4668  -0.4599
H       2.7343  -1.4583  0.4427
H       3.5353  -0.1760  1.3141
H       1.2331  -0.8976  1.9452
H       1.4665  0.7074  1.8398
H       -1.5113  -0.7054  -1.8576
