27

Co      0.0000  0.0000  0.0000
Cl      0.0002  -2.2734  -0.2132
Cl      -0.0001  2.2735  0.2133
N       -1.5035  0.1494  -1.3724
N       -1.5035  -0.1495  1.3723
N       1.5035  0.1493  -1.3724
N       1.5034  -0.1490  1.3724
C       -2.7753  0.4213  -0.6443
C       -2.7755  -0.4206  0.6443
C       2.7754  0.4212  -0.6444
C       2.7755  -0.4201  0.6445
H       -1.2853  0.8956  -2.0029
H       -2.8800  1.4760  -0.4524
H       -3.6000  0.1029  -1.2650
H       -3.6000  -0.1018  1.2651
H       -2.8807  -1.4752  0.4524
H       -1.6181  0.6927  1.9066
H       -1.2857  -0.8961  2.0024
H       1.6183  -0.6933  -1.9059
H       1.2855  0.8953  -2.0032
H       3.6000  0.1026  -1.2651
H       2.8801  1.4760  -0.4530
H       2.8810  -1.4749  0.4531
H       3.5999  -0.1010  1.2652
H       1.2856  -0.8953  2.0028
H       1.6178  0.6934  1.9063
H       -1.6183  -0.6930  -1.9063
