27

Co      -0.0370  0.0000  0.0000
Cl      0.0035  -2.2753  -0.2170
Cl      0.0031  2.2754  0.2171
N       -1.4917  0.1340  -1.3594
N       -1.4917  -0.1341  1.3593
N       1.5253  0.1410  -1.3816
N       1.5253  -0.1407  1.3817
C       -2.7660  0.4166  -0.6330
C       -2.7663  -0.4159  0.6329
C       2.7939  0.4175  -0.6327
C       2.7940  -0.4164  0.6328
H       -1.3057  0.8702  -2.0130
H       -2.7837  1.4694  -0.4018
H       -3.6179  0.1871  -1.2526
H       -3.6179  -0.1860  1.2527
H       -2.7843  -1.4687  0.4018
H       -1.5558  0.7280  1.8622
H       -1.3061  -0.8707  2.0125
H       1.5984  -0.7271  -1.8812
H       1.3664  0.8730  -2.0448
H       3.6570  0.1874  -1.2414
H       2.8115  1.4686  -0.4029
H       2.8124  -1.4675  0.4030
H       3.6570  -0.1859  1.2416
H       1.3666  -0.8730  2.0445
H       1.5979  0.7272  1.8816
H       -1.5560  -0.7284  -1.8619
