27

Co      0.0125  0.0000  0.0000
Cl      0.0002  -2.3090  -0.2186
Cl      -0.0001  2.3091  0.2187
N       -1.4630  0.1533  -1.3500
N       -1.5023  -0.1534  1.3867
N       1.4818  0.1464  -1.3367
N       1.4425  -0.1461  1.2998
C       -2.7248  0.4003  -0.6600
C       -2.7496  -0.4070  0.6698
C       2.7495  0.4100  -0.6654
C       2.7251  -0.4015  0.6557
H       -1.2794  0.9072  -1.9795
H       -2.7460  1.4579  -0.4465
H       -3.5631  0.1740  -1.2987
H       -3.6073  -0.1680  1.2792
H       -2.7712  -1.4646  0.4637
H       -1.5470  0.7068  1.8988
H       -1.3289  -0.8979  2.0306
H       1.5177  -0.7188  -1.8378
H       1.2877  0.8811  -1.9881
H       3.5845  0.1709  -1.3034
H       2.7760  1.4676  -0.4575
H       2.7523  -1.4591  0.4403
H       3.5403  -0.1743  1.3231
H       1.2388  -0.8910  1.9362
H       1.4681  0.7115  1.8161
H       -1.4982  -0.6998  -1.8764
