27

Co      0.0000  0.0000  0.0000
Cl      0.0002  -2.2894  -0.2159
Cl      -0.0001  2.2895  0.2160
N       -1.5068  0.1475  -1.3716
N       -1.4675  -0.1477  1.3347
N       1.4675  0.1475  -1.3347
N       1.5068  -0.1472  1.3715
C       -2.7764  0.4135  -0.6405
C       -2.7521  -0.4055  0.6306
C       2.7519  0.4061  -0.6308
C       2.7766  -0.4124  0.6407
H       -1.2228  0.8934  -1.9829
H       -2.8540  1.4639  -0.4186
H       -3.6267  0.1231  -1.2376
H       -3.5847  -0.1269  1.2551
H       -2.8301  -1.4558  0.4014
H       -1.3961  0.7355  1.8197
H       -1.1741  -0.9038  1.9309
H       1.3941  -0.7361  -1.8190
H       1.1739  0.9029  -1.9316
H       3.5825  0.1276  -1.2574
H       2.8296  1.4565  -0.4020
H       2.8549  -1.4628  0.4192
H       3.6266  -0.1211  1.2379
H       1.2231  -0.8932  1.9828
H       1.4427  0.7436  1.8414
H       -1.4432  -0.7432  -1.8414
