27

Co      0.0000  0.0000  0.0000
Cl      0.0002  -2.2637  -0.2151
Cl      -0.0001  2.2637  0.2152
N       -1.4462  0.1446  -1.3237
N       -1.4462  -0.1447  1.3236
N       1.4462  0.1445  -1.3236
N       1.4462  -0.1442  1.3236
C       -2.7582  0.3899  -0.6352
C       -2.7584  -0.3892  0.6352
C       2.7582  0.3899  -0.6353
C       2.7584  -0.3888  0.6354
H       -1.3150  0.8919  -1.9804
H       -2.7530  1.4446  -0.4053
H       -3.6058  0.1811  -1.2671
H       -3.6058  -0.1800  1.2672
H       -2.7536  -1.4439  0.4053
H       -1.4419  0.7261  1.8236
H       -1.3154  -0.8925  1.9799
H       1.4422  -0.7267  -1.8229
H       1.3152  0.8916  -1.9806
H       3.6058  0.1807  -1.2672
H       2.7531  1.4447  -0.4059
H       2.7539  -1.4436  0.4059
H       3.6057  -0.1791  1.2674
H       1.3153  -0.8917  1.9803
H       1.4416  0.7268  1.8232
H       -1.4422  -0.7264  -1.8233
