27

Co      0.0000  0.0031  -0.0194
Cl      0.0002  -2.3127  -0.2157
Cl      -0.0001  2.3107  0.2179
N       -1.4975  0.1487  -1.3564
N       -1.4910  -0.1468  1.3379
N       1.4583  0.1486  -1.3195
N       1.5302  -0.1463  1.3748
C       -2.7812  0.4051  -0.6264
C       -2.7814  -0.4073  0.6350
C       2.7567  0.3977  -0.6167
C       2.8059  -0.4142  0.6450
H       -1.2982  0.9109  -1.9728
H       -2.8649  1.4520  -0.3940
H       -3.5726  0.1376  -1.3133
H       -3.5675  -0.1230  1.3206
H       -2.8798  -1.4562  0.4116
H       -1.4582  0.7271  1.8372
H       -1.2680  -0.9028  1.9515
H       1.4235  -0.7145  -1.8365
H       1.2493  0.9204  -1.9215
H       3.5284  0.1421  -1.3331
H       2.8404  1.4447  -0.3775
H       2.9047  -1.4632  0.4295
H       3.6093  -0.1172  1.3034
H       1.3170  -0.8922  2.0034
H       1.5048  0.7352  1.8590
H       -1.4726  -0.7205  -1.8590
