27

Co      -0.0370  0.0000  0.0000
Cl      0.0035  -2.2753  -0.2170
Cl      0.0031  2.2754  0.2171
N       -1.5253  0.1341  -1.3846
N       -1.4860  -0.1343  1.3477
N       1.5196  0.1411  -1.3700
N       1.5588  -0.1408  1.4068
C       -2.7760  0.4250  -0.6337
C       -2.7517  -0.4169  0.6238
C       2.7793  0.4186  -0.6236
C       2.8040  -0.4248  0.6335
H       -1.2303  0.8694  -2.0063
H       -2.8203  1.4734  -0.3907
H       -3.6433  0.1702  -1.2225
H       -3.6014  -0.1740  1.2401
H       -2.7964  -1.4653  0.3735
H       -1.4247  0.7545  1.8181
H       -1.1817  -0.8798  1.9543
H       1.4652  -0.7536  -1.8370
H       1.2420  0.8821  -1.9866
H       3.6382  0.1755  -1.2310
H       2.8236  1.4652  -0.3746
H       2.8490  -1.4715  0.3919
H       3.6823  -0.1690  1.2115
H       1.2913  -0.8723  2.0378
H       1.5137  0.7611  1.8595
H       -1.4718  -0.7623  -1.8398
