27

Co      0.0370  0.0000  0.0000
Cl      -0.0030  -2.2833  -0.2177
Cl      -0.0034  2.2833  0.2178
N       -1.4381  0.1418  -1.3459
N       -1.4381  -0.1420  1.3458
N       1.4046  0.1366  -1.3236
N       1.4045  -0.1363  1.3236
C       -2.7661  0.4204  -0.6499
C       -2.7663  -0.4197  0.6499
C       2.7384  0.4194  -0.6503
C       2.7385  -0.4183  0.6504
H       -1.2579  0.8735  -2.0039
H       -2.7914  1.4737  -0.4274
H       -3.5883  0.1836  -1.3063
H       -3.5883  -0.1825  1.3064
H       -2.7921  -1.4744  0.4274
H       -1.4975  0.7257  1.8477
H       -1.2583  -0.8740  2.0034
H       1.4534  -0.7279  -1.8292
H       1.1975  0.8719  -1.9707
H       3.5492  0.1806  -1.3178
H       2.7657  1.4741  -0.4293
H       2.7665  -1.4730  0.4294
H       3.5491  -0.1790  1.3179
H       1.1976  -0.8720  1.9704
H       1.4529  0.7280  1.8296
H       -1.4978  -0.7260  -1.8474
