27

Co      0.0370  0.0244  0.0017
Cl      -0.0030  -2.3018  -0.2157
Cl      -0.0034  2.2682  0.2124
N       -1.4291  0.1557  -1.3488
N       -1.4684  -0.1608  1.3872
N       1.4348  0.1485  -1.3633
N       1.3955  -0.1533  1.3282
C       -2.7350  0.3873  -0.6400
C       -2.7598  -0.3940  0.6482
C       2.7318  0.3936  -0.6503
C       2.7074  -0.3852  0.6389
H       -1.3504  0.9172  -1.9973
H       -2.8146  1.4414  -0.4416
H       -3.5121  0.1149  -1.3406
H       -3.5562  -0.1123  1.3194
H       -2.8398  -1.4481  0.4538
H       -1.5699  0.6617  1.9603
H       -1.3814  -0.9416  2.0131
H       1.5143  -0.6959  -1.8962
H       1.3391  0.9040  -2.0176
H       3.5171  0.1089  -1.3324
H       2.8115  1.4497  -0.4589
H       2.7878  -1.4412  0.4367
H       3.4729  -0.1156  1.3505
H       1.2716  -0.9475  1.9303
H       1.4781  0.6567  1.9182
H       -1.5076  -0.6867  -1.8942
