27

Co      0.0370  0.0000  0.0000
Cl      -0.0030  -2.2637  -0.2151
Cl      -0.0034  2.2637  0.2152
N       -1.4630  0.1472  -1.3348
N       -1.4630  -0.1473  1.3347
N       1.4295  0.1419  -1.3125
N       1.4294  -0.1416  1.3125
C       -2.7721  0.3904  -0.6350
C       -2.7723  -0.3897  0.6350
C       2.7443  0.3894  -0.6355
C       2.7445  -0.3883  0.6356
H       -1.3453  0.8926  -1.9971
H       -2.7659  1.4451  -0.4046
H       -3.6254  0.1824  -1.2614
H       -3.6254  -0.1813  1.2616
H       -2.7666  -1.4444  0.4046
H       -1.4641  0.7253  1.8331
H       -1.3457  -0.8931  1.9966
H       1.4200  -0.7275  -1.8145
H       1.2849  0.8910  -1.9639
H       3.5863  0.1794  -1.2729
H       2.7402  1.4442  -0.4066
H       2.7410  -1.4431  0.4066
H       3.5862  -0.1778  1.2730
H       1.2850  -0.8911  1.9636
H       1.4195  0.7276  1.8149
H       -1.4643  -0.7256  -1.8327
