27

Co      0.0125  0.0213  0.0211
Cl      0.0002  -2.2795  -0.2178
Cl      -0.0001  2.2479  0.2124
N       -1.4485  0.1446  -1.3319
N       -1.4550  -0.1518  1.3519
N       1.4673  0.1377  -1.3185
N       1.3952  -0.1445  1.2650
C       -2.7539  0.4053  -0.6538
C       -2.7542  -0.4017  0.6435
C       2.7786  0.4149  -0.6592
C       2.7296  -0.3962  0.6294
H       -1.3133  0.8589  -2.0253
H       -2.7748  1.4678  -0.4688
H       -3.6307  0.1371  -1.2247
H       -3.6357  -0.1528  1.2160
H       -2.7611  -1.4621  0.4462
H       -1.6044  0.6763  1.9072
H       -1.3259  -0.9017  2.0103
H       1.5965  -0.7336  -1.8024
H       1.3216  0.8329  -2.0338
H       3.6521  0.1341  -1.2279
H       2.8062  1.4774  -0.4798
H       2.7437  -1.4567  0.4229
H       3.5710  -0.1592  1.2563
H       1.2358  -0.8948  1.9159
H       1.5277  0.6811  1.8244
H       -1.5771  -0.7156  -1.8410
