27

Co      0.0370  -0.0031  0.0194
Cl      -0.0030  -2.3080  -0.2196
Cl      -0.0034  2.3101  0.2177
N       -1.4837  0.1670  -1.3497
N       -1.4903  -0.1691  1.3680
N       1.4894  0.1617  -1.3642
N       1.4174  -0.1634  1.3090
C       -2.7488  0.4115  -0.6690
C       -2.7490  -0.4080  0.6604
C       2.7456  0.4179  -0.6793
C       2.6967  -0.3992  0.6511
H       -1.3250  0.8574  -2.0563
H       -2.8039  1.4701  -0.4664
H       -3.5809  0.1473  -1.3015
H       -3.5882  -0.1597  1.2922
H       -2.7902  -1.4645  0.4488
H       -1.5270  0.7311  1.8134
H       -1.3561  -0.8666  2.0767
H       1.5156  -0.7466  -1.7949
H       1.3137  0.8461  -2.0725
H       3.5859  0.1416  -1.2947
H       2.8012  1.4765  -0.4856
H       2.7387  -1.4558  0.4337
H       3.5049  -0.1633  1.3248
H       1.2441  -0.8744  1.9899
H       1.4333  0.7260  1.7731
H       -1.5108  -0.7384  -1.7910
