27

Co      -0.0370  0.0031  -0.0194
Cl      0.0035  -2.3181  -0.2195
Cl      0.0031  2.3161  0.2216
N       -1.5045  0.1352  -1.3452
N       -1.5372  -0.1333  1.3635
N       1.5381  0.1422  -1.3675
N       1.5707  -0.1398  1.3859
C       -2.7260  0.4199  -0.6091
C       -2.7507  -0.4294  0.6274
C       2.7538  0.4209  -0.6088
C       2.7785  -0.4300  0.6273
H       -1.1775  0.8791  -1.9483
H       -2.8428  1.4688  -0.3816
H       -3.5645  0.1058  -1.2114
H       -3.6035  -0.0863  1.1991
H       -2.8823  -1.4789  0.4164
H       -1.5366  0.7539  1.8310
H       -1.1963  -0.8613  1.9785
H       1.5443  -0.7397  -1.8500
H       1.2382  0.8819  -1.9801
H       3.6035  0.1062  -1.2002
H       2.8707  1.4665  -0.3827
H       2.9103  -1.4777  0.4175
H       3.6403  -0.0862  1.1902
H       1.2568  -0.8636  2.0104
H       1.5765  0.7531  1.8504
H       -1.5019  -0.7400  -1.8307
