27

Co      0.0000  -0.0244  -0.0017
Cl      0.0002  -2.2807  -0.2162
Cl      -0.0001  2.3144  0.2196
N       -1.5389  0.1409  -1.3570
N       -1.5389  -0.1360  1.3552
N       1.5389  0.1427  -1.3569
N       1.5388  -0.1374  1.3552
C       -2.7722  0.4208  -0.6214
C       -2.7724  -0.4201  0.6231
C       2.7723  0.4208  -0.6216
C       2.7724  -0.4197  0.6233
H       -1.3236  0.8859  -1.9924
H       -2.8722  1.4751  -0.4164
H       -3.6152  0.1113  -1.2218
H       -3.6151  -0.1068  1.2237
H       -2.8728  -1.4730  0.4214
H       -1.6573  0.7291  1.8500
H       -1.3426  -0.8527  2.0273
H       1.6691  -0.6977  -1.8949
H       1.3238  0.8874  -1.9908
H       3.6151  0.1090  -1.2220
H       2.8742  1.4718  -0.4189
H       2.8750  -1.4707  0.4239
H       3.6151  -0.1041  1.2238
H       1.3425  -0.8538  2.0258
H       1.6551  0.7298  1.8515
H       -1.6710  -0.6975  -1.8934
