27

Co      -0.0370  -0.0244  -0.0017
Cl      0.0035  -2.2752  -0.2124
Cl      0.0031  2.3089  0.2159
N       -1.4884  0.1541  -1.3274
N       -1.4884  -0.1491  1.3257
N       1.5220  0.1592  -1.3497
N       1.5219  -0.1539  1.3480
C       -2.7874  0.4062  -0.6440
C       -2.7876  -0.4055  0.6456
C       2.8152  0.4072  -0.6437
C       2.8154  -0.4061  0.6455
H       -1.2138  0.9116  -1.9336
H       -2.8416  1.4634  -0.4410
H       -3.6591  0.1187  -1.2139
H       -3.6591  -0.1142  1.2158
H       -2.8422  -1.4626  0.4460
H       -1.4864  0.7318  1.8046
H       -1.2327  -0.8785  1.9684
H       1.5444  -0.6989  -1.8655
H       1.2745  0.9125  -1.9672
H       3.6982  0.1209  -1.2028
H       2.8675  1.4644  -0.4402
H       2.8684  -1.4633  0.4453
H       3.6981  -0.1160  1.2046
H       1.2932  -0.8789  2.0022
H       1.5304  0.7309  1.8221
H       -1.5001  -0.7002  -1.8481
