27

Co      0.0000  0.0244  0.0017
Cl      0.0002  -2.3044  -0.2138
Cl      -0.0001  2.2708  0.2106
N       -1.4590  0.1574  -1.3474
N       -1.4590  -0.1626  1.3490
N       1.4591  0.1555  -1.3474
N       1.4590  -0.1602  1.3491
C       -2.7682  0.3896  -0.6451
C       -2.7685  -0.3889  0.6434
C       2.7683  0.3896  -0.6452
C       2.7685  -0.3885  0.6436
H       -1.3726  0.9177  -1.9969
H       -2.8583  1.4438  -0.4543
H       -3.5435  0.1017  -1.3434
H       -3.5434  -0.1039  1.3418
H       -2.8590  -1.4431  0.4493
H       -1.5477  0.6528  1.9338
H       -1.3545  -0.9520  1.9611
H       1.5364  -0.6854  -1.8874
H       1.3728  0.9156  -1.9990
H       3.5434  0.1032  -1.3435
H       2.8566  1.4457  -0.4531
H       2.8574  -1.4446  0.4481
H       3.5434  -0.1050  1.3420
H       1.3544  -0.9493  1.9633
H       1.5493  0.6535  1.9316
H       -1.5345  -0.6851  -1.8897
