27

Co      0.0000  0.0031  -0.0194
Cl      0.0002  -2.2931  -0.2131
Cl      -0.0001  2.2911  0.2152
N       -1.4840  0.1527  -1.3285
N       -1.5167  -0.1508  1.3469
N       1.4840  0.1527  -1.3285
N       1.5167  -0.1503  1.3469
C       -2.7890  0.3992  -0.6306
C       -2.8138  -0.4087  0.6489
C       2.7891  0.3992  -0.6307
C       2.8137  -0.4083  0.6492
H       -1.3169  0.9094  -1.9647
H       -2.8423  1.4529  -0.4157
H       -3.6118  0.1396  -1.2797
H       -3.6485  -0.1201  1.2696
H       -2.8818  -1.4644  0.4505
H       -1.5680  0.7101  1.8578
H       -1.3357  -0.8916  1.9949
H       1.5355  -0.6974  -1.8571
H       1.3171  0.9091  -1.9650
H       3.6117  0.1393  -1.2798
H       2.8424  1.4529  -0.4164
H       2.8821  -1.4641  0.4512
H       3.6485  -0.1193  1.2698
H       1.3356  -0.8908  1.9953
H       1.5677  0.7108  1.8575
H       -1.5356  -0.6961  -1.8575
