27

Co      0.0000  -0.0244  -0.0017
Cl      0.0002  -2.2566  -0.2116
Cl      -0.0001  2.2903  0.2150
N       -1.4988  0.1500  -1.3858
N       -1.4987  -0.1450  1.3840
N       1.4988  0.1499  -1.3857
N       1.4987  -0.1445  1.3840
C       -2.7910  0.4087  -0.6142
C       -2.7912  -0.4080  0.6159
C       2.7910  0.4086  -0.6144
C       2.7912  -0.4075  0.6161
H       -1.2179  0.9245  -1.9657
H       -2.8890  1.4561  -0.3878
H       -3.6428  0.0969  -1.2009
H       -3.6451  -0.0925  1.2005
H       -2.8897  -1.4554  0.3929
H       -1.4465  0.7482  1.8515
H       -1.2369  -0.8914  2.0006
H       1.4580  -0.7168  -1.8946
H       1.2181  0.9242  -1.9659
H       3.6428  0.0965  -1.1996
H       2.8906  1.4562  -0.3885
H       2.8914  -1.4551  0.3936
H       3.6428  -0.0916  1.2014
H       1.2368  -0.8906  2.0009
H       1.4440  0.7489  1.8512
H       -1.4580  -0.7166  -1.8950
