27

Co      0.0000  0.0000  0.0000
Cl      0.0002  -2.2859  -0.2159
Cl      -0.0001  2.2859  0.2160
N       -1.4486  0.1448  -1.3109
N       -1.4486  -0.1449  1.3108
N       1.4486  0.1448  -1.3108
N       1.4486  -0.1445  1.3109
C       -2.7710  0.4017  -0.6416
C       -2.7713  -0.4010  0.6415
C       2.7711  0.4016  -0.6417
C       2.7712  -0.4005  0.6418
H       -1.3836  0.8804  -2.0017
H       -2.8013  1.4607  -0.4470
H       -3.5873  0.1519  -1.3011
H       -3.5850  -0.1508  1.3035
H       -2.8020  -1.4600  0.4470
H       -1.6204  0.6859  1.8611
H       -1.3840  -0.8809  2.0012
H       1.6229  -0.6866  -1.8604
H       1.3838  0.8801  -2.0019
H       3.5872  0.1516  -1.3012
H       2.8014  1.4608  -0.4476
H       2.8023  -1.4597  0.4476
H       3.5872  -0.1500  1.3014
H       1.3839  -0.8801  2.0016
H       1.6224  0.6867  1.8607
H       -1.6229  -0.6863  -1.8608
