27

Co      0.0000  0.0000  0.0000
Cl      0.0002  -2.3055  -0.2186
Cl      -0.0001  2.3055  0.2187
N       -1.4594  0.1630  -1.3191
N       -1.4594  -0.1631  1.3190
N       1.4595  0.1629  -1.3190
N       1.4594  -0.1626  1.3190
C       -2.7373  0.4108  -0.6625
C       -2.7375  -0.4101  0.6625
C       2.7374  0.4108  -0.6626
C       2.7375  -0.4097  0.6627
H       -1.2957  0.8516  -2.0297
H       -2.7921  1.4684  -0.4559
H       -3.5542  0.1503  -1.3156
H       -3.5542  -0.1492  1.3157
H       -2.7928  -1.4676  0.4559
H       -1.4835  0.7425  1.7570
H       -1.2961  -0.8521  2.0292
H       1.4837  -0.7432  -1.7563
H       1.2959  0.8513  -2.0277
H       3.5542  0.1522  -1.3172
H       2.7908  1.4684  -0.4565
H       2.7917  -1.4673  0.4566
H       3.5541  -0.1506  1.3173
H       1.2938  -0.8513  2.0274
H       1.4832  0.7432  1.7566
H       -1.4837  -0.7429  -1.7567
