27

Co      0.0125  0.0000  0.0000
Cl      0.0002  -2.2894  -0.2159
Cl      -0.0001  2.2895  0.2160
N       -1.4696  0.1506  -1.3647
N       -1.4696  -0.1508  1.3646
N       1.4491  0.1437  -1.3145
N       1.4491  -0.1434  1.3145
C       -2.7686  0.3993  -0.6462
C       -2.7689  -0.3986  0.6462
C       2.7687  0.4016  -0.6418
C       2.7689  -0.4005  0.6419
H       -1.4184  0.8979  -2.0437
H       -2.7895  1.4584  -0.4528
H       -3.6094  0.1532  -1.2766
H       -3.6071  -0.1521  1.2790
H       -2.7902  -1.4577  0.4528
H       -1.6484  0.6731  1.9277
H       -1.4189  -0.8984  2.0432
H       1.6213  -0.6851  -1.8667
H       1.3777  0.8817  -2.0007
H       3.5866  0.1551  -1.2995
H       2.7965  1.4607  -0.4466
H       2.7973  -1.4596  0.4466
H       3.5866  -0.1535  1.2996
H       1.3778  -0.8817  2.0003
H       1.6208  0.6852  1.8670
H       -1.6509  -0.6734  -1.9274
