27

Co      0.0000  -0.0244  -0.0017
Cl      0.0002  -2.2781  -0.2180
Cl      -0.0001  2.3118  0.2214
N       -1.4813  0.1175  -1.3754
N       -1.4813  -0.1126  1.3736
N       1.4813  0.1193  -1.3753
N       1.4813  -0.1140  1.3736
C       -2.7758  0.4127  -0.6069
C       -2.7760  -0.4120  0.6085
C       2.7758  0.4126  -0.6070
C       2.7760  -0.4115  0.6087
H       -1.2827  0.9153  -1.9569
H       -2.7874  1.4626  -0.3682
H       -3.6417  0.1826  -1.2078
H       -3.6417  -0.1782  1.2096
H       -2.7881  -1.4619  0.3732
H       -1.5714  0.7222  1.9244
H       -1.3016  -0.8822  1.9918
H       1.5832  -0.6908  -1.9693
H       1.2829  0.9168  -1.9575
H       3.6417  0.1781  -1.2065
H       2.7908  1.4608  -0.3707
H       2.7917  -1.4597  0.3757
H       3.6417  -0.1732  1.2083
H       1.3038  -0.8832  1.9925
H       1.5692  0.7229  1.9259
H       -1.5851  -0.6906  -1.9678
