27

Co      0.0125  -0.0031  0.0194
Cl      0.0002  -2.3026  -0.2159
Cl      -0.0001  2.3047  0.2139
N       -1.4646  0.1606  -1.3565
N       -1.4319  -0.1628  1.3380
N       1.4441  0.1518  -1.3063
N       1.4113  -0.1536  1.2879
C       -2.7651  0.3972  -0.6582
C       -2.7408  -0.3863  0.6398
C       2.7652  0.3995  -0.6538
C       2.7408  -0.3881  0.6355
H       -1.2899  0.9162  -1.9864
H       -2.8541  1.4548  -0.4790
H       -3.5949  0.0812  -1.2719
H       -3.5581  -0.0985  1.2823
H       -2.8159  -1.4418  0.4443
H       -1.4748  0.6779  1.8867
H       -1.2719  -0.9352  1.9552
H       1.4800  -0.7032  -1.8238
H       1.2491  0.8981  -1.9453
H       3.5721  0.0849  -1.2948
H       2.8591  1.4590  -0.4709
H       2.8211  -1.4456  0.4362
H       3.5353  -0.1018  1.3052
H       1.2309  -0.9166  1.9142
H       1.4468  0.6900  1.8242
H       -1.5078  -0.6926  -1.8864
