27

Co      0.0000  0.0000  0.0000
Cl      0.0002  -2.2618  -0.2113
Cl      -0.0001  2.2619  0.2114
N       -1.3941  0.1604  -1.3088
N       -1.4334  -0.1606  1.3455
N       1.4334  0.1585  -1.3455
N       1.3941  -0.1582  1.3087
C       -2.7683  0.3836  -0.6614
C       -2.7931  -0.3902  0.6712
C       2.7930  0.3909  -0.6713
C       2.7686  -0.3824  0.6616
H       -1.2819  0.9178  -1.9609
H       -2.7400  1.4455  -0.4621
H       -3.6266  0.1723  -1.2791
H       -3.6685  -0.1663  1.2618
H       -2.7652  -1.4536  0.4793
H       -1.5000  0.6878  1.8764
H       -1.3314  -0.9085  2.0120
H       1.5044  -0.6884  -1.8738
H       1.3312  0.9058  -2.0146
H       3.6708  0.1689  -1.2596
H       2.7627  1.4562  -0.4781
H       2.7390  -1.4477  0.4609
H       3.6265  -0.1722  1.2794
H       1.2823  -0.9157  1.9627
H       1.4548  0.6811  1.8521
H       -1.4534  -0.6808  -1.8540
