27

Co      0.0370  0.0213  0.0211
Cl      -0.0030  -2.2831  -0.2178
Cl      -0.0034  2.2515  0.2124
N       -1.4700  0.1414  -1.3535
N       -1.4765  -0.1487  1.3735
N       1.4757  0.1362  -1.3679
N       1.4036  -0.1430  1.3144
C       -2.7632  0.4055  -0.6399
C       -2.7634  -0.4020  0.6296
C       2.7600  0.4119  -0.6502
C       2.7111  -0.3932  0.6203
H       -1.3831  0.8750  -2.0325
H       -2.8217  1.4588  -0.4280
H       -3.5559  0.1518  -1.3279
H       -3.5632  -0.1675  1.3170
H       -2.8080  -1.4532  0.4054
H       -1.5912  0.6800  1.9323
H       -1.3957  -0.9178  2.0175
H       1.5664  -0.7275  -1.8700
H       1.3718  0.8637  -2.0508
H       3.5609  0.1439  -1.3197
H       2.8204  1.4652  -0.4472
H       2.7579  -1.4445  0.3902
H       3.4799  -0.1690  1.3481
H       1.2859  -0.9257  1.9329
H       1.4975  0.6749  1.8921
H       -1.5616  -0.7193  -1.8662
