27

Co      -0.0125  0.0000  0.0000
Cl      0.0002  -2.2734  -0.2132
Cl      -0.0001  2.2735  0.2133
N       -1.4889  0.1481  -1.3474
N       -1.4889  -0.1483  1.3473
N       1.5094  0.1549  -1.3974
N       1.5094  -0.1546  1.3974
C       -2.7818  0.4051  -0.6399
C       -2.7820  -0.4044  0.6399
C       2.7819  0.4028  -0.6446
C       2.7820  -0.4017  0.6446
H       -1.3080  0.8984  -1.9856
H       -2.8338  1.4598  -0.4295
H       -3.6167  0.1408  -1.2677
H       -3.6167  -0.1397  1.2678
H       -2.8344  -1.4591  0.4295
H       -1.5406  0.7048  1.8672
H       -1.3084  -0.8989  1.9851
H       1.5705  -0.6941  -1.9268
H       1.3491  0.9140  -2.0291
H       3.6395  0.1381  -1.2451
H       2.8270  1.4576  -0.4370
H       2.8279  -1.4565  0.4370
H       3.6394  -0.1366  1.2452
H       1.3493  -0.9141  2.0288
H       1.5699  0.6942  1.9272
H       -1.5409  -0.7052  -1.8669
