27

Co      0.0000  0.0000  0.0000
Cl      0.0002  -2.3090  -0.2186
Cl      -0.0001  2.3091  0.2187
N       -1.4385  0.1456  -1.3307
N       -1.4777  -0.1457  1.3674
N       1.4778  0.1455  -1.3674
N       1.4384  -0.1452  1.3306
C       -2.7363  0.4015  -0.6349
C       -2.7611  -0.4081  0.6447
C       2.7609  0.4088  -0.6448
C       2.7365  -0.4004  0.6351
H       -1.2575  0.8964  -1.9665
H       -2.7837  1.4562  -0.4202
H       -3.5632  0.1451  -1.2757
H       -3.6074  -0.1391  1.2562
H       -2.8089  -1.4628  0.4374
H       -1.5365  0.7153  1.8767
H       -1.3070  -0.8871  2.0175
H       1.5368  -0.7160  -1.8760
H       1.3068  0.8862  -2.0183
H       3.6074  0.1398  -1.2562
H       2.8083  1.4636  -0.4380
H       2.7846  -1.4551  0.4208
H       3.5631  -0.1431  1.2760
H       1.2578  -0.8961  1.9664
H       1.4872  0.7087  1.8542
H       -1.4877  -0.7083  -1.8543
