27

Co      -0.0370  0.0031  -0.0194
Cl      0.0035  -2.3181  -0.2195
Cl      0.0031  2.3161  0.2216
N       -1.5263  0.1197  -1.3592
N       -1.5198  -0.1178  1.3407
N       1.5207  0.1267  -1.3446
N       1.5926  -0.1244  1.3999
C       -2.7404  0.4192  -0.6118
C       -2.7407  -0.4213  0.6203
C       2.7438  0.4128  -0.6017
C       2.7930  -0.4293  0.6300
H       -1.1754  0.9074  -1.9077
H       -2.8330  1.4680  -0.3835
H       -3.5954  0.1233  -1.1994
H       -3.5903  -0.1087  1.2067
H       -2.8479  -1.4708  0.4011
H       -1.5232  0.7237  1.8842
H       -1.1452  -0.8994  1.8863
H       1.5308  -0.7095  -1.9031
H       1.1871  0.9200  -1.8901
H       3.5903  0.1263  -1.2078
H       2.8363  1.4584  -0.3675
H       2.9005  -1.4769  0.4195
H       3.6712  -0.1014  1.1781
H       1.2570  -0.8919  1.9720
H       1.6121  0.7302  1.9256
H       -1.5375  -0.7171  -1.9059
