27

Co      0.0370  0.0000  0.0000
Cl      -0.0030  -2.3055  -0.2186
Cl      -0.0034  2.3055  0.2187
N       -1.4502  0.1456  -1.3247
N       -1.4502  -0.1458  1.3246
N       1.4167  0.1404  -1.3024
N       1.4166  -0.1401  1.3024
C       -2.7671  0.4022  -0.6414
C       -2.7673  -0.4015  0.6414
C       2.7394  0.4011  -0.6419
C       2.7395  -0.4000  0.6419
H       -1.3979  0.8783  -2.0211
H       -2.7929  1.4612  -0.4454
H       -3.5908  0.1559  -1.2937
H       -3.5885  -0.1548  1.2961
H       -2.7935  -1.4605  0.4454
H       -1.6274  0.6878  1.8723
H       -1.3983  -0.8789  2.0206
H       1.5856  -0.6900  -1.8538
H       1.3375  0.8768  -1.9879
H       3.5517  0.1529  -1.3051
H       2.7671  1.4603  -0.4474
H       2.7680  -1.4592  0.4474
H       3.5516  -0.1513  1.3053
H       1.3376  -0.8768  1.9876
H       1.5851  0.6901  1.8542
H       -1.6299  -0.6882  -1.8720
