27

Co      0.0125  -0.0031  0.0194
Cl      0.0002  -2.2662  -0.2161
Cl      -0.0001  2.2683  0.2141
N       -1.4661  0.1627  -1.3726
N       -1.4726  -0.1649  1.3909
N       1.4849  0.1558  -1.3593
N       1.4128  -0.1576  1.3041
C       -2.7471  0.4107  -0.6485
C       -2.7473  -0.4072  0.6399
C       2.7717  0.4203  -0.6539
C       2.7228  -0.4017  0.6258
H       -1.3178  0.8612  -2.0740
H       -2.8202  1.4665  -0.4459
H       -3.5874  0.1190  -1.2581
H       -3.5947  -0.1314  1.2488
H       -2.8065  -1.4608  0.4284
H       -1.5297  0.7298  1.8457
H       -1.3489  -0.8703  2.0944
H       1.5330  -0.7551  -1.7847
H       1.3261  0.8351  -2.0803
H       3.6087  0.1182  -1.2614
H       2.8516  1.4761  -0.4569
H       2.7891  -1.4554  0.4050
H       3.5277  -0.1399  1.2914
H       1.2566  -0.8634  1.9977
H       1.4507  0.7345  1.7630
H       -1.5135  -0.7371  -1.8233
