27

Co      -0.0125  0.0031  -0.0194
Cl      0.0002  -2.3145  -0.2195
Cl      -0.0001  2.3126  0.2216
N       -1.5017  0.1340  -1.3143
N       -1.4951  -0.1320  1.2958
N       1.4829  0.1426  -1.3275
N       1.5549  -0.1403  1.3827
C       -2.7633  0.4045  -0.6112
C       -2.7635  -0.4066  0.6197
C       2.7388  0.3948  -0.6060
C       2.7880  -0.4113  0.6343
H       -1.3405  0.8639  -1.9856
H       -2.8057  1.4577  -0.3839
H       -3.6088  0.1545  -1.2321
H       -3.6014  -0.1399  1.2417
H       -2.8207  -1.4605  0.4015
H       -1.5501  0.7386  1.7873
H       -1.3103  -0.8559  1.9642
H       1.5453  -0.7146  -1.8488
H       1.3326  0.8912  -1.9757
H       3.5873  0.1549  -1.2291
H       2.7763  1.4448  -0.3761
H       2.8406  -1.4633  0.4281
H       3.6682  -0.1300  1.1994
H       1.4003  -0.8631  2.0575
H       1.6266  0.7353  1.8713
H       -1.5667  -0.7320  -1.8091
