27

Co      0.0000  0.0244  0.0017
Cl      0.0002  -2.3223  -0.2203
Cl      -0.0001  2.2887  0.2170
N       -1.4473  0.1407  -1.3195
N       -1.4473  -0.1459  1.3211
N       1.4474  0.1406  -1.3195
N       1.4473  -0.1454  1.3211
C       -2.7509  0.4064  -0.6382
C       -2.7512  -0.4057  0.6365
C       2.7510  0.4063  -0.6383
C       2.7512  -0.4052  0.6367
H       -1.2769  0.8651  -1.9896
H       -2.8043  1.4611  -0.4289
H       -3.5745  0.1385  -1.2799
H       -3.5745  -0.1408  1.2784
H       -2.8050  -1.4603  0.4239
H       -1.5056  0.7028  1.8516
H       -1.2589  -0.8993  1.9538
H       1.4923  -0.7354  -1.8071
H       1.2771  0.8648  -1.9898
H       3.5745  0.1382  -1.2800
H       2.8044  1.4611  -0.4295
H       2.8053  -1.4600  0.4245
H       3.5744  -0.1399  1.2785
H       1.2588  -0.8985  1.9541
H       1.5053  0.7036  1.8513
H       -1.4923  -0.7352  -1.8075
