27

Co      0.0000  0.0244  0.0017
Cl      0.0002  -2.2822  -0.2130
Cl      -0.0001  2.2486  0.2097
N       -1.4245  0.1603  -1.3551
N       -1.4245  -0.1655  1.3567
N       1.4245  0.1584  -1.3550
N       1.4245  -0.1631  1.3567
C       -2.7782  0.3860  -0.6695
C       -2.7784  -0.3853  0.6678
C       2.7783  0.3860  -0.6697
C       2.7784  -0.3849  0.6681
H       -1.3301  0.9056  -2.0247
H       -2.7439  1.4480  -0.4756
H       -3.6595  0.1706  -1.2569
H       -3.6572  -0.1728  1.2577
H       -2.7445  -1.4487  0.4706
H       -1.4953  0.6609  1.9231
H       -1.3120  -0.9398  1.9889
H       1.4862  -0.6935  -1.8768
H       1.3303  0.9034  -2.0268
H       3.6595  0.1721  -1.2571
H       2.7421  1.4513  -0.4744
H       2.7429  -1.4502  0.4694
H       3.6594  -0.1739  1.2555
H       1.3119  -0.9372  1.9911
H       1.4992  0.6616  1.9209
H       -1.4844  -0.6933  -1.8790
