27

Co      0.0125  0.0244  0.0017
Cl      0.0002  -2.2822  -0.2130
Cl      -0.0001  2.2486  0.2097
N       -1.4440  0.1627  -1.3717
N       -1.4440  -0.1679  1.3732
N       1.4235  0.1539  -1.3215
N       1.4234  -0.1587  1.3232
C       -2.7599  0.3698  -0.6543
C       -2.7601  -0.3691  0.6526
C       2.7600  0.3720  -0.6499
C       2.7601  -0.3709  0.6483
H       -1.4515  0.9241  -2.0500
H       -2.7505  1.4307  -0.4651
H       -3.6153  0.1464  -1.2730
H       -3.6130  -0.1486  1.2737
H       -2.7512  -1.4300  0.4601
H       -1.5606  0.6389  1.9714
H       -1.4334  -0.9583  2.0142
H       1.5219  -0.6829  -1.8648
H       1.4107  0.9059  -2.0089
H       3.5925  0.1501  -1.2959
H       2.7556  1.4349  -0.4571
H       2.7564  -1.4338  0.4520
H       3.5925  -0.1519  1.2944
H       1.3923  -0.9397  1.9732
H       1.5349  0.6510  1.9089
H       -1.5496  -0.6712  -1.9273
