27

Co      0.0000  0.0031  -0.0194
Cl      0.0002  -2.2727  -0.2160
Cl      -0.0001  2.2708  0.2181
N       -1.5137  0.1346  -1.3310
N       -1.5464  -0.1327  1.3493
N       1.5137  0.1364  -1.3309
N       1.5464  -0.1341  1.3493
C       -2.7430  0.4225  -0.6065
C       -2.7678  -0.4320  0.6249
C       2.7431  0.4224  -0.6066
C       2.7678  -0.4316  0.6251
H       -1.1975  0.8694  -1.9488
H       -2.8625  1.4713  -0.3769
H       -3.5765  0.1089  -1.2156
H       -3.6155  -0.0894  1.2032
H       -2.9020  -1.4815  0.4116
H       -1.5514  0.7611  1.8071
H       -1.2163  -0.8516  1.9790
H       1.5148  -0.7484  -1.8083
H       1.1977  0.8710  -1.9472
H       3.5764  0.1066  -1.2157
H       2.8644  1.4681  -0.3794
H       2.9041  -1.4792  0.4142
H       3.6132  -0.0866  1.2056
H       1.2162  -0.8527  1.9775
H       1.5470  0.7618  1.8087
H       -1.5167  -0.7471  -1.8068
