27

Co      -0.0370  0.0000  0.0000
Cl      0.0035  -2.2956  -0.2141
Cl      0.0031  2.2957  0.2142
N       -1.4939  0.1474  -1.3678
N       -1.4939  -0.1475  1.3677
N       1.5275  0.1525  -1.3900
N       1.5275  -0.1522  1.3901
C       -2.7941  0.4073  -0.6153
C       -2.7944  -0.4066  0.6152
C       2.8220  0.4083  -0.6150
C       2.8222  -0.4072  0.6151
H       -1.2088  0.9105  -1.9598
H       -2.8992  1.4548  -0.3936
H       -3.6361  0.0871  -1.2125
H       -3.6383  -0.0860  1.2104
H       -2.8998  -1.4541  0.3936
H       -1.4405  0.7296  1.8596
H       -1.2093  -0.9111  1.9593
H       1.4828  -0.7286  -1.8768
H       1.2696  0.9114  -1.9935
H       3.6752  0.0893  -1.1999
H       2.9266  1.4558  -0.3929
H       2.9274  -1.4547  0.3929
H       3.6751  -0.0878  1.2001
H       1.2698  -0.9115  1.9931
H       1.4823  0.7287  1.8771
H       -1.4385  -0.7299  -1.8593
