27

Co      0.0000  0.0000  0.0000
Cl      0.0002  -2.2913  -0.2197
Cl      -0.0001  2.2914  0.2198
N       -1.5010  0.1316  -1.3361
N       -1.5010  -0.1318  1.3360
N       1.5010  0.1334  -1.3360
N       1.5010  -0.1332  1.3360
C       -2.7397  0.4229  -0.6199
C       -2.7399  -0.4222  0.6199
C       2.7398  0.4229  -0.6200
C       2.7399  -0.4218  0.6201
H       -1.2905  0.8534  -1.9993
H       -2.8361  1.4771  -0.4130
H       -3.5756  0.1167  -1.2289
H       -3.5755  -0.1156  1.2291
H       -2.8368  -1.4750  0.4130
H       -1.6263  0.7264  1.8420
H       -1.2910  -0.8539  1.9988
H       1.6247  -0.7270  -1.8432
H       1.2907  0.8549  -1.9976
H       3.5755  0.1145  -1.2291
H       2.8381  1.4739  -0.4155
H       2.8389  -1.4728  0.4156
H       3.5755  -0.1129  1.2292
H       1.2909  -0.8550  1.9973
H       1.6242  0.7271  1.8436
H       -1.6266  -0.7267  -1.8417
