27

Co      0.0370  0.0000  0.0000
Cl      -0.0030  -2.2814  -0.2140
Cl      -0.0034  2.2814  0.2141
N       -1.4246  0.1602  -1.3326
N       -1.4246  -0.1604  1.3325
N       1.3911  0.1531  -1.3102
N       1.3910  -0.1528  1.3102
C       -2.7584  0.3726  -0.6486
C       -2.7586  -0.3719  0.6486
C       2.7307  0.3716  -0.6491
C       2.7308  -0.3705  0.6492
H       -1.4216  0.9213  -2.0098
H       -2.7539  1.4336  -0.4552
H       -3.5967  0.1508  -1.2893
H       -3.5944  -0.1497  1.2917
H       -2.7545  -1.4328  0.4553
H       -1.5329  0.6696  1.8942
H       -1.4221  -0.9218  2.0093
H       1.4930  -0.6718  -1.8738
H       1.3612  0.9179  -1.9784
H       3.5576  0.1496  -1.3007
H       2.7262  1.4345  -0.4553
H       2.7271  -1.4334  0.4554
H       3.5575  -0.1481  1.3009
H       1.3614  -0.9180  1.9781
H       1.4925  0.6719  1.8742
H       -1.5354  -0.6700  -1.8939
