27

Co      0.0000  0.0244  0.0017
Cl      0.0002  -2.3018  -0.2157
Cl      -0.0001  2.2682  0.2124
N       -1.4319  0.1531  -1.3561
N       -1.4319  -0.1583  1.3577
N       1.4320  0.1511  -1.3560
N       1.4319  -0.1559  1.3577
C       -2.7334  0.3905  -0.6451
C       -2.7336  -0.3898  0.6434
C       2.7334  0.3904  -0.6452
C       2.7336  -0.3893  0.6436
H       -1.3446  0.9117  -2.0064
H       -2.8139  1.4446  -0.4509
H       -3.5146  0.1112  -1.3365
H       -3.5146  -0.1134  1.3349
H       -2.8146  -1.4439  0.4458
H       -1.5232  0.6589  1.9398
H       -1.3265  -0.9459  1.9706
H       1.5119  -0.6915  -1.8935
H       1.3448  0.9095  -2.0085
H       3.5146  0.1127  -1.3366
H       2.8121  1.4465  -0.4496
H       2.8130  -1.4454  0.4446
H       3.5145  -0.1145  1.3351
H       1.3264  -0.9432  1.9728
H       1.5248  0.6596  1.9376
H       -1.5100  -0.6912  -1.8957
