27

Co      -0.0125  0.0000  0.0000
Cl      0.0002  -2.3171  -0.2205
Cl      -0.0001  2.3172  0.2206
N       -1.5288  0.1353  -1.3522
N       -1.4895  -0.1355  1.3153
N       1.5100  0.1440  -1.3654
N       1.5493  -0.1437  1.4022
C       -2.7731  0.4084  -0.6228
C       -2.7488  -0.4003  0.6129
C       2.7487  0.3987  -0.6176
C       2.7734  -0.4050  0.6275
H       -1.3641  0.8643  -2.0213
H       -2.8168  1.4626  -0.4037
H       -3.6379  0.1477  -1.2138
H       -3.5937  -0.1515  1.2336
H       -2.7929  -1.4531  0.3865
H       -1.5469  0.7243  1.8232
H       -1.3154  -0.8746  1.9692
H       1.5748  -0.7135  -1.8847
H       1.3562  0.8916  -2.0113
H       3.6165  0.1481  -1.2108
H       2.7874  1.4497  -0.3959
H       2.8128  -1.4560  0.4131
H       3.6606  -0.1416  1.1914
H       1.4054  -0.8818  2.0625
H       1.6234  0.7210  1.9072
H       -1.5962  -0.7320  -1.8450
