27

Co      0.0370  0.0000  0.0000
Cl      -0.0030  -2.2814  -0.2140
Cl      -0.0034  2.2814  0.2141
N       -1.3957  0.1612  -1.3226
N       -1.4350  -0.1614  1.3593
N       1.4015  0.1541  -1.3371
N       1.3621  -0.1538  1.3003
C       -2.7644  0.3840  -0.6612
C       -2.7892  -0.3907  0.6710
C       2.7612  0.3904  -0.6715
C       2.7369  -0.3819  0.6618
H       -1.2962  0.9157  -1.9803
H       -2.7315  1.4460  -0.4606
H       -3.6302  0.1763  -1.2716
H       -3.6721  -0.1703  1.2544
H       -2.7567  -1.4540  0.4778
H       -1.5070  0.6897  1.8876
H       -1.3457  -0.9064  2.0314
H       1.4671  -0.6919  -1.8672
H       1.2849  0.9025  -2.0005
H       3.6352  0.1703  -1.2634
H       2.7284  1.4557  -0.4779
H       2.7047  -1.4472  0.4607
H       3.5910  -0.1736  1.2832
H       1.2359  -0.9124  1.9487
H       1.4175  0.6846  1.8455
H       -1.4604  -0.6827  -1.8652
