27

Co      -0.0370  0.0000  0.0000
Cl      0.0035  -2.2975  -0.2178
Cl      0.0031  2.2976  0.2179
N       -1.5465  0.1357  -1.3702
N       -1.5072  -0.1358  1.3333
N       1.5408  0.1427  -1.3556
N       1.5800  -0.1424  1.3924
C       -2.7748  0.4090  -0.6162
C       -2.7505  -0.4009  0.6063
C       2.7781  0.4026  -0.6061
C       2.8028  -0.4089  0.6160
H       -1.3432  0.8833  -2.0032
H       -2.8535  1.4565  -0.3793
H       -3.6006  0.1403  -1.2551
H       -3.5586  -0.1441  1.2726
H       -2.8296  -1.4470  0.3621
H       -1.4846  0.7348  1.8314
H       -1.2945  -0.8937  1.9511
H       1.5250  -0.7338  -1.8504
H       1.3549  0.8960  -1.9834
H       3.5955  0.1456  -1.2636
H       2.8568  1.4468  -0.3633
H       2.8822  -1.4531  0.3805
H       3.6396  -0.1391  1.2441
H       1.4041  -0.8862  2.0346
H       1.5736  0.7413  1.8728
H       -1.5317  -0.7425  -1.8532
