27

Co      0.0000  -0.0244  -0.0017
Cl      0.0002  -2.2566  -0.2116
Cl      -0.0001  2.2903  0.2150
N       -1.5176  0.1533  -1.3648
N       -1.5176  -0.1484  1.3630
N       1.5176  0.1533  -1.3648
N       1.5175  -0.1479  1.3631
C       -2.7570  0.4086  -0.6308
C       -2.7572  -0.4079  0.6325
C       2.7571  0.4085  -0.6309
C       2.7572  -0.4074  0.6327
H       -1.3042  0.9180  -1.9768
H       -2.8828  1.4647  -0.4456
H       -3.5930  0.0694  -1.2261
H       -3.5930  -0.0650  1.2279
H       -2.8835  -1.4626  0.4507
H       -1.6254  0.7044  1.8805
H       -1.3231  -0.8849  2.0117
H       1.6391  -0.6731  -1.9235
H       1.3044  0.9177  -1.9770
H       3.5930  0.0690  -1.2262
H       2.8830  1.4633  -0.4463
H       2.8838  -1.4622  0.4514
H       3.5929  -0.0641  1.2281
H       1.3230  -0.8841  2.0120
H       1.6252  0.7051  1.8801
H       -1.6391  -0.6728  -1.9239
