27

Co      0.0125  0.0000  0.0000
Cl      0.0002  -2.2637  -0.2151
Cl      -0.0001  2.2637  0.2152
N       -1.4321  0.1481  -1.3235
N       -1.4714  -0.1482  1.3602
N       1.4509  0.1412  -1.3102
N       1.4116  -0.1409  1.2734
C       -2.7417  0.4001  -0.6438
C       -2.7665  -0.4068  0.6536
C       2.7663  0.4097  -0.6492
C       2.7419  -0.4013  0.6394
H       -1.2948  0.8850  -1.9923
H       -2.7553  1.4616  -0.4489
H       -3.6123  0.1480  -1.2289
H       -3.6542  -0.1420  1.2117
H       -2.7805  -1.4683  0.4661
H       -1.6140  0.6995  1.8853
H       -1.3444  -0.8757  2.0433
H       1.5869  -0.7115  -1.8243
H       1.3032  0.8589  -2.0008
H       3.6336  0.1449  -1.2322
H       2.7868  1.4713  -0.4599
H       2.7631  -1.4628  0.4428
H       3.5894  -0.1483  1.2520
H       1.2542  -0.8688  1.9489
H       1.5373  0.7042  1.8026
H       -1.5674  -0.6925  -1.8629
