27

Co      0.0370  -0.0031  0.0194
Cl      -0.0030  -2.2858  -0.2187
Cl      -0.0034  2.2879  0.2168
N       -1.4548  0.1422  -1.3570
N       -1.4614  -0.1444  1.3753
N       1.4605  0.1369  -1.3714
N       1.3885  -0.1387  1.3162
C       -2.7454  0.4055  -0.6390
C       -2.7456  -0.4020  0.6304
C       2.7422  0.4119  -0.6493
C       2.6933  -0.3932  0.6212
H       -1.3578  0.8892  -2.0175
H       -2.8003  1.4588  -0.4246
H       -3.5399  0.1561  -1.3253
H       -3.5472  -0.1685  1.3160
H       -2.7866  -1.4532  0.4071
H       -1.5693  0.6987  1.9122
H       -1.3889  -0.8983  2.0379
H       1.5580  -0.7142  -1.8937
H       1.3465  0.8779  -2.0358
H       3.5449  0.1482  -1.3171
H       2.7991  1.4652  -0.4438
H       2.7365  -1.4445  0.3919
H       3.4639  -0.1700  1.3471
H       1.2791  -0.9062  1.9533
H       1.4756  0.6936  1.8720
H       -1.5532  -0.7060  -1.8898
