27

Co      -0.0125  0.0000  0.0000
Cl      0.0002  -2.3116  -0.2168
Cl      -0.0001  2.3117  0.2169
N       -1.5085  0.1467  -1.3406
N       -1.4692  -0.1468  1.3037
N       1.4897  0.1534  -1.3538
N       1.5289  -0.1532  1.3906
C       -2.7935  0.4138  -0.6382
C       -2.7691  -0.4058  0.6284
C       2.7690  0.4041  -0.6331
C       2.7937  -0.4104  0.6430
H       -1.2142  0.8889  -1.9544
H       -2.8804  1.4642  -0.4177
H       -3.6281  0.1174  -1.2541
H       -3.5862  -0.1212  1.2716
H       -2.8566  -1.4561  0.4005
H       -1.3907  0.7378  1.7847
H       -1.1656  -0.8992  1.9024
H       1.4183  -0.7270  -1.8443
H       1.2063  0.9143  -1.9464
H       3.6067  0.1197  -1.2511
H       2.8492  1.4545  -0.4080
H       2.8746  -1.4608  0.4252
H       3.6508  -0.1132  1.2316
H       1.2555  -0.9046  1.9976
H       1.4669  0.7345  1.8667
H       -1.4378  -0.7455  -1.8064
