27

Co      0.0000  -0.0244  -0.0017
Cl      0.0002  -2.2948  -0.2151
Cl      -0.0001  2.3285  0.2185
N       -1.4991  0.1526  -1.3480
N       -1.4991  -0.1477  1.3463
N       1.4991  0.1526  -1.3480
N       1.4991  -0.1472  1.3463
C       -2.7812  0.4090  -0.6347
C       -2.7814  -0.4083  0.6364
C       2.7812  0.4090  -0.6349
C       2.7814  -0.4079  0.6366
H       -1.2009  0.9186  -1.9326
H       -2.8648  1.4593  -0.4100
H       -3.6174  0.1204  -1.2517
H       -3.6196  -0.1160  1.2513
H       -2.8654  -1.4586  0.4151
H       -1.4233  0.7518  1.8046
H       -1.2198  -0.8855  1.9675
H       1.4348  -0.7204  -1.8476
H       1.2011  0.9183  -1.9328
H       3.6174  0.1200  -1.2519
H       2.8649  1.4594  -0.4106
H       2.8657  -1.4583  0.4157
H       3.6173  -0.1151  1.2537
H       1.2198  -0.8847  1.9678
H       1.4208  0.7525  1.8042
H       -1.4348  -0.7201  -1.8480
