27

Co      0.0125  -0.0031  0.0194
Cl      0.0002  -2.3080  -0.2196
Cl      -0.0001  2.3101  0.2177
N       -1.4573  0.1510  -1.3850
N       -1.4245  -0.1532  1.3665
N       1.4368  0.1441  -1.3348
N       1.4040  -0.1459  1.3164
C       -2.7879  0.4023  -0.6708
C       -2.7636  -0.3913  0.6524
C       2.7879  0.4045  -0.6664
C       2.7636  -0.3932  0.6480
H       -1.3539  0.8863  -2.0623
H       -2.7278  1.4634  -0.4637
H       -3.6954  0.2065  -1.2336
H       -3.6563  -0.2238  1.2462
H       -2.6896  -1.4518  0.4290
H       -1.5038  0.6914  1.9032
H       -1.3359  -0.9053  2.0312
H       1.5094  -0.7167  -1.8422
H       1.3131  0.8701  -2.0193
H       3.6726  0.2084  -1.2565
H       2.7348  1.4671  -0.4575
H       2.6967  -1.4537  0.4228
H       3.6358  -0.2252  1.2668
H       1.2949  -0.8886  1.9883
H       1.4762  0.7035  1.8426
H       -1.5390  -0.7061  -1.9029
