27

Co      0.0000  0.0000  0.0000
Cl      0.0002  -2.2956  -0.2141
Cl      -0.0001  2.2957  0.2142
N       -1.5202  0.1519  -1.3732
N       -1.5202  -0.1520  1.3731
N       1.5202  0.1518  -1.3732
N       1.5201  -0.1515  1.3732
C       -2.7966  0.4054  -0.6331
C       -2.7968  -0.4047  0.6331
C       2.7967  0.4053  -0.6332
C       2.7968  -0.4042  0.6333
H       -1.3133  0.9188  -1.9801
H       -2.8850  1.4533  -0.4061
H       -3.5957  0.1306  -1.3066
H       -3.5979  -0.1295  1.3045
H       -2.8857  -1.4526  0.4061
H       -1.4947  0.7138  1.8824
H       -1.3137  -0.9194  1.9796
H       1.4927  -0.7144  -1.8817
H       1.3135  0.9185  -1.9803
H       3.5957  0.1302  -1.3068
H       2.8851  1.4533  -0.4067
H       2.8860  -1.4522  0.4068
H       3.5956  -0.1286  1.3069
H       1.3136  -0.9186  1.9800
H       1.4922  0.7145  1.8820
H       -1.4927  -0.7142  -1.8821
