27

Co      0.0125  -0.0031  0.0194
Cl      0.0002  -2.2884  -0.2169
Cl      -0.0001  2.2905  0.2150
N       -1.4802  0.1498  -1.3622
N       -1.4868  -0.1519  1.3805
N       1.4990  0.1429  -1.3489
N       1.4270  -0.1446  1.2937
C       -2.7664  0.4055  -0.6463
C       -2.7666  -0.4019  0.6377
C       2.7910  0.4151  -0.6517
C       2.7420  -0.3964  0.6236
H       -1.3032  0.8978  -2.0008
H       -2.8211  1.4612  -0.4419
H       -3.6090  0.1321  -1.2610
H       -3.6164  -0.1445  1.2517
H       -2.8074  -1.4556  0.4243
H       -1.5501  0.6998  1.9056
H       -1.3343  -0.9069  2.0212
H       1.5535  -0.7251  -1.8446
H       1.3115  0.8718  -2.0093
H       3.6304  0.1290  -1.2643
H       2.8526  1.4708  -0.4528
H       2.7900  -1.4501  0.4009
H       3.5494  -0.1508  1.2943
H       1.2442  -0.9000  1.9267
H       1.4712  0.7046  1.8229
H       -1.5340  -0.7071  -1.8832
