27

Co      -0.0370  0.0031  -0.0194
Cl      0.0035  -2.2709  -0.2122
Cl      0.0031  2.2689  0.2144
N       -1.4749  0.1476  -1.3418
N       -1.4683  -0.1457  1.3233
N       1.4692  0.1527  -1.3272
N       1.5411  -0.1504  1.3824
C       -2.7703  0.4032  -0.6357
C       -2.7705  -0.4054  0.6442
C       2.7736  0.3968  -0.6256
C       2.8228  -0.4133  0.6539
H       -1.2992  0.9005  -1.9806
H       -2.8186  1.4569  -0.4224
H       -3.6015  0.1427  -1.2704
H       -3.5941  -0.1281  1.2800
H       -2.8336  -1.4611  0.4400
H       -1.5119  0.7106  1.8415
H       -1.2689  -0.8924  1.9593
H       1.5237  -0.6963  -1.8586
H       1.3109  0.9112  -1.9627
H       3.5964  0.1499  -1.2789
H       2.8201  1.4506  -0.4045
H       2.8843  -1.4691  0.4565
H       3.6773  -0.1250  1.2492
H       1.3785  -0.8831  2.0446
H       1.6050  0.7171  1.8811
H       -1.5286  -0.7040  -1.8633
