27

Co      0.0125  0.0213  0.0211
Cl      0.0002  -2.2776  -0.2140
Cl      -0.0001  2.2460  0.2087
N       -1.4297  0.1580  -1.3490
N       -1.4363  -0.1653  1.3690
N       1.4485  0.1493  -1.3356
N       1.3765  -0.1561  1.2821
C       -2.7783  0.3898  -0.6647
C       -2.7786  -0.3862  0.6544
C       2.8030  0.3994  -0.6701
C       2.7540  -0.3807  0.6402
H       -1.2937  0.9088  -1.9952
H       -2.7876  1.4460  -0.4561
H       -3.6112  0.1580  -1.3086
H       -3.6186  -0.1738  1.2977
H       -2.7740  -1.4418  0.4335
H       -1.4351  0.6770  1.9177
H       -1.3063  -0.9515  1.9803
H       1.4268  -0.7343  -1.8110
H       1.3020  0.8808  -2.0056
H       3.6326  0.1569  -1.3119
H       2.8172  1.4589  -0.4652
H       2.7547  -1.4382  0.4082
H       3.5515  -0.1820  1.3402
H       1.2162  -0.9428  1.8877
H       1.3580  0.6818  1.8331
H       -1.4055  -0.7163  -1.8515
