27

Co      0.0000  0.0000  0.0000
Cl      0.0002  -2.3152  -0.2168
Cl      -0.0001  2.3153  0.2169
N       -1.5295  0.1525  -1.3943
N       -1.4902  -0.1526  1.3574
N       1.4902  0.1524  -1.3574
N       1.5295  -0.1521  1.3943
C       -2.7911  0.4115  -0.6429
C       -2.7667  -0.4034  0.6330
C       2.7666  0.4041  -0.6332
C       2.7913  -0.4103  0.6431
H       -1.2491  0.9064  -1.9964
H       -2.8687  1.4618  -0.4235
H       -3.6503  0.1187  -1.2296
H       -3.6083  -0.1225  1.2471
H       -2.8448  -1.4537  0.4063
H       -1.4187  0.7249  1.8513
H       -1.2004  -0.9168  1.9444
H       1.4166  -0.7255  -1.8506
H       1.2002  0.9159  -1.9451
H       3.6060  0.1232  -1.2494
H       2.8442  1.4545  -0.4070
H       2.8696  -1.4608  0.4242
H       3.6502  -0.1167  1.2299
H       1.2494  -0.9062  1.9963
H       1.4652  0.7330  1.8730
H       -1.4658  -0.7326  -1.8731
