27

Co      -0.0370  0.0031  -0.0194
Cl      0.0035  -2.3163  -0.2157
Cl      0.0031  2.3143  0.2179
N       -1.4767  0.1509  -1.3556
N       -1.5094  -0.1490  1.3739
N       1.5103  0.1560  -1.3778
N       1.5430  -0.1537  1.3962
C       -2.7526  0.4022  -0.6289
C       -2.7774  -0.4117  0.6473
C       2.7805  0.4032  -0.6287
C       2.8052  -0.4123  0.6472
H       -1.1850  0.9199  -1.9386
H       -2.8240  1.4515  -0.3982
H       -3.5902  0.1290  -1.2502
H       -3.6293  -0.1095  1.2378
H       -2.8635  -1.4631  0.4330
H       -1.4374  0.7365  1.8529
H       -1.2039  -0.9020  1.9688
H       1.4470  -0.7223  -1.8700
H       1.2458  0.9208  -1.9722
H       3.6293  0.1313  -1.2390
H       2.8500  1.4525  -0.3975
H       2.8897  -1.4637  0.4323
H       3.6660  -0.1113  1.2289
H       1.2644  -0.9025  2.0026
H       1.4792  0.7357  1.8703
H       -1.4027  -0.7226  -1.8525
