27

Co      -0.0370  0.0031  -0.0194
Cl      0.0035  -2.3127  -0.2157
Cl      0.0031  2.3107  0.2179
N       -1.4713  0.1442  -1.3510
N       -1.4647  -0.1423  1.3325
N       1.4656  0.1494  -1.3364
N       1.5375  -0.1470  1.3916
C       -2.7787  0.4071  -0.6086
C       -2.7790  -0.4092  0.6171
C       2.7820  0.4007  -0.5985
C       2.8313  -0.4172  0.6268
H       -1.1938  0.9026  -1.9526
H       -2.8790  1.4535  -0.3815
H       -3.6130  0.0941  -1.2192
H       -3.6078  -0.0795  1.2265
H       -2.8940  -1.4577  0.3991
H       -1.4040  0.7429  1.8145
H       -1.1635  -0.8945  1.9312
H       1.4136  -0.7287  -1.8316
H       1.2055  0.9133  -1.9347
H       3.6079  0.1013  -1.2262
H       2.8819  1.4472  -0.3636
H       2.9461  -1.4657  0.4156
H       3.6888  -0.0764  1.1965
H       1.2731  -0.8851  2.0166
H       1.4949  0.7494  1.8541
H       -1.4184  -0.7363  -1.8363
