27

Co      0.0000  -0.0244  -0.0017
Cl      0.0002  -2.3003  -0.2188
Cl      -0.0001  2.3340  0.2223
N       -1.5524  0.1369  -1.3848
N       -1.5131  -0.1319  1.3462
N       1.5132  0.1387  -1.3480
N       1.5524  -0.1333  1.3831
C       -2.7644  0.4268  -0.6173
C       -2.7401  -0.4187  0.6091
C       2.7399  0.4194  -0.6076
C       2.7646  -0.4257  0.6192
H       -1.3050  0.8873  -2.0005
H       -2.8947  1.4742  -0.3947
H       -3.5760  0.1093  -1.2555
H       -3.5341  -0.1097  1.2747
H       -2.8708  -1.4647  0.3825
H       -1.5475  0.7462  1.8294
H       -1.2748  -0.8640  1.9839
H       1.5571  -0.7148  -1.8743
H       1.2561  0.8987  -1.9474
H       3.5318  0.1119  -1.2752
H       2.8722  1.4636  -0.3800
H       2.8975  -1.4699  0.4022
H       3.5759  -0.1021  1.2574
H       1.3238  -0.8553  2.0339
H       1.5922  0.7543  1.8530
H       -1.6081  -0.7219  -1.8950
