27

Co      0.0000  0.0000  0.0000
Cl      0.0002  -2.2840  -0.2122
Cl      -0.0001  2.2840  0.2123
N       -1.4300  0.1608  -1.3212
N       -1.4300  -0.1610  1.3211
N       1.4300  0.1589  -1.3212
N       1.4300  -0.1586  1.3212
C       -2.7912  0.4037  -0.6685
C       -2.7914  -0.4030  0.6684
C       2.7913  0.4036  -0.6686
C       2.7914  -0.4025  0.6687
H       -1.2752  0.9055  -1.9756
H       -2.8250  1.4656  -0.4927
H       -3.6334  0.1263  -1.2830
H       -3.6312  -0.1252  1.2854
H       -2.8256  -1.4663  0.4927
H       -1.5475  0.6742  1.8697
H       -1.2756  -0.9060  1.9751
H       1.5519  -0.6748  -1.8671
H       1.2754  0.9033  -1.9777
H       3.6334  0.1278  -1.2832
H       2.8232  1.4689  -0.4915
H       2.8240  -1.4678  0.4915
H       3.6334  -0.1262  1.2833
H       1.2755  -0.9034  1.9773
H       1.5513  0.6749  1.8675
H       -1.5500  -0.6746  -1.8694
