27

Co      0.0000  0.0000  0.0000
Cl      0.0002  -2.3152  -0.2168
Cl      -0.0001  2.3153  0.2169
N       -1.5156  0.1523  -1.3875
N       -1.4763  -0.1525  1.3506
N       1.4764  0.1523  -1.3507
N       1.5156  -0.1520  1.3875
C       -2.7933  0.4068  -0.6471
C       -2.7690  -0.3987  0.6372
C       2.7688  0.3994  -0.6374
C       2.7935  -0.4057  0.6473
H       -1.3489  0.9022  -2.0289
H       -2.8443  1.4615  -0.4432
H       -3.6470  0.1331  -1.2498
H       -3.6028  -0.1369  1.2696
H       -2.8204  -1.4534  0.4260
H       -1.5251  0.6947  1.8844
H       -1.3003  -0.9126  1.9768
H       1.5254  -0.6953  -1.8837
H       1.3000  0.9117  -1.9775
H       3.6028  0.1376  -1.2696
H       2.8198  1.4542  -0.4267
H       2.8452  -1.4604  0.4439
H       3.6469  -0.1311  1.2501
H       1.3493  -0.9020  2.0288
H       1.5739  0.7028  1.9062
H       -1.5745  -0.7024  -1.9062
