27

Co      0.0219  -0.0063  0.0148
Cl      -1.0889  1.6195  -1.2228
Cl      1.1271  1.4048  1.3281
C       2.5977  -0.7056  -0.8342
C       2.0976  -1.8736  -0.0892
C       -2.4816  -1.2847  -0.4365
C       -2.3959  -1.1288  1.0537
N       1.4901  0.0764  -1.2915
N       1.0356  -1.4997  0.8423
N       -1.1032  -1.3137  -1.0118
N       -1.4530  -0.0538  1.3380
H       2.9866  -2.3013  0.3654
H       1.6658  -2.6274  -0.7331
H       -2.9728  -0.4664  -0.9313
H       -3.0505  -2.1925  -0.6034
H       1.7734  1.0354  -1.3976
H       1.2880  -0.2238  -2.2294
H       -1.9264  0.8277  1.2454
H       -1.1682  -0.0896  2.2978
H       -1.9998  -2.0211  1.5193
H       -3.3886  -0.9742  1.4506
H       0.5516  -2.3378  1.1151
H       1.5057  -1.1954  1.6852
H       3.2887  -1.0975  -1.5752
H       3.1458  -0.0563  -0.1778
H       -0.8288  -2.2771  -1.0396
H       -1.1925  -1.0315  -1.9722
