27

Co      -0.0246  -0.0120  -0.0182
Cl      -1.0976  1.6255  -1.2242
Cl      1.1785  1.4690  1.3807
C       2.6946  -0.7155  -0.8346
C       2.1738  -1.9806  -0.1071
C       -2.5530  -1.3202  -0.4339
C       -2.4387  -1.1562  1.0628
N       1.5141  0.0867  -1.3206
N       1.1005  -1.5367  0.9186
N       -1.1581  -1.2842  -1.0114
N       -1.4707  -0.0603  1.3177
H       2.9266  -2.4911  0.4772
H       1.7514  -2.6948  -0.8017
H       -3.1508  -0.5163  -0.8406
H       -2.9793  -2.2654  -0.7561
H       1.6954  1.0816  -1.2714
H       1.1604  -0.1088  -2.2423
H       -1.8741  0.8549  1.2097
H       -1.0562  -0.0829  2.2316
H       -2.0780  -2.0769  1.4966
H       -3.3767  -0.9110  1.5378
H       0.5801  -2.3178  1.2643
H       1.4767  -1.0123  1.6978
H       3.3187  -0.8815  -1.7109
H       3.2581  -0.1329  -0.1236
H       -0.7125  -2.1862  -1.0224
H       -1.1832  -0.9210  -1.9452
