27

Co      0.0251  0.0134  0.0158
Cl      -1.0936  1.6256  -1.2223
Cl      1.1301  1.4030  1.3307
C       2.6058  -0.7033  -0.8029
C       2.1072  -1.9067  -0.0806
C       -2.5112  -1.2980  -0.4569
C       -2.3912  -1.1511  1.0502
N       1.4641  0.0781  -1.2980
N       1.0721  -1.5111  0.8418
N       -1.1231  -1.3399  -1.0082
N       -1.4452  -0.0391  1.3250
H       2.9709  -2.4182  0.3322
H       1.6359  -2.5871  -0.7753
H       -2.9592  -0.4326  -0.9159
H       -3.1206  -2.1667  -0.6710
H       1.7484  1.0340  -1.4580
H       1.2678  -0.2736  -2.2210
H       -1.9383  0.8359  1.2597
H       -1.1365  -0.0852  2.2763
H       -1.9745  -2.0337  1.5196
H       -3.3741  -0.9967  1.4720
H       0.5677  -2.3256  1.1388
H       1.5524  -1.1933  1.6720
H       3.2801  -1.0948  -1.5566
H       3.1576  -0.0342  -0.1657
H       -0.8344  -2.2989  -0.9732
H       -1.1842  -1.1077  -1.9859
