27

Co      0.0281  0.0121  0.0154
Cl      -1.0880  1.6148  -1.2236
Cl      1.1227  1.3903  1.3228
C       2.6229  -0.6834  -0.8282
C       2.1040  -1.9228  -0.0787
C       -2.4996  -1.3170  -0.4568
C       -2.4035  -1.1274  1.0612
N       1.4628  0.1029  -1.3160
N       1.0543  -1.5097  0.9016
N       -1.1213  -1.3286  -1.0585
N       -1.4388  -0.0343  1.3632
H       2.9591  -2.4492  0.3282
H       1.5955  -2.5948  -0.7581
H       -2.9858  -0.4837  -0.9381
H       -3.0845  -2.2117  -0.6322
H       1.7272  1.0634  -1.4562
H       1.2572  -0.2364  -2.2421
H       -1.9136  0.8534  1.3221
H       -1.1221  -0.1116  2.3110
H       -2.0214  -2.0110  1.5552
H       -3.3969  -0.9478  1.4497
H       0.5466  -2.3195  1.2053
H       1.5526  -1.1908  1.7214
H       3.3217  -1.0350  -1.5794
H       3.1441  -0.0154  -0.1654
H       -0.8354  -2.2875  -1.1170
H       -1.2165  -1.0102  -2.0058
