27

Co      0.0279  0.0217  0.0047
Cl      -1.0889  1.6178  -1.2201
Cl      1.1484  1.4323  1.3563
C       2.5979  -0.7082  -0.8070
C       2.0963  -1.8851  -0.1103
C       -2.5133  -1.3056  -0.4342
C       -2.4124  -1.1389  1.0444
N       1.5042  0.0549  -1.3271
N       1.0729  -1.5295  0.8683
N       -1.1480  -1.3706  -1.0408
N       -1.4737  -0.0663  1.3542
H       2.9480  -2.3451  0.3705
H       1.6792  -2.6136  -0.7888
H       -3.0376  -0.4888  -0.8955
H       -3.0578  -2.2162  -0.6374
H       1.7605  1.0173  -1.4544
H       1.2014  -0.2761  -2.2227
H       -1.9115  0.8334  1.2811
H       -1.1321  -0.1348  2.2915
H       -2.0405  -2.0511  1.4872
H       -3.3902  -0.9586  1.4620
H       0.5501  -2.3530  1.1092
H       1.4826  -1.1775  1.7158
H       3.2903  -1.0220  -1.5734
H       3.1358  -0.0884  -0.1136
H       -0.8216  -2.3147  -1.0449
H       -1.2163  -1.0733  -1.9957
