27

Co      0.0017  -0.0061  0.0017
Cl      -1.0729  1.5932  -1.2073
Cl      1.1386  1.4129  1.3433
C       2.5970  -0.6971  -0.8165
C       2.0834  -1.8737  -0.1006
C       -2.4798  -1.2969  -0.4390
C       -2.3950  -1.1150  1.0514
N       1.4861  0.0655  -1.2980
N       1.0557  -1.4770  0.8538
N       -1.1110  -1.2938  -1.0365
N       -1.4413  -0.0522  1.3400
H       2.9653  -2.3399  0.3284
H       1.6180  -2.5948  -0.7547
H       -3.0042  -0.5016  -0.9430
H       -3.0254  -2.2242  -0.5828
H       1.7618  1.0255  -1.4175
H       1.2997  -0.2550  -2.2344
H       -1.9069  0.8382  1.2827
H       -1.1326  -0.1165  2.2895
H       -2.0141  -2.0072  1.5296
H       -3.3893  -0.9451  1.4382
H       0.6006  -2.3059  1.1909
H       1.5536  -1.1217  1.6547
H       3.3192  -1.0667  -1.5404
H       3.1108  -0.0458  -0.1348
H       -0.8244  -2.2531  -1.0928
H       -1.2183  -0.9861  -1.9869
