27

Co      -0.0158  -0.0203  -0.0271
Cl      -1.0821  1.5958  -1.2000
Cl      1.1804  1.4696  1.3847
C       2.6898  -0.7036  -0.8212
C       2.1677  -1.9983  -0.0830
C       -2.5642  -1.3195  -0.4561
C       -2.4238  -1.1699  1.0713
N       1.4523  0.1011  -1.2839
N       1.0818  -1.4799  0.8665
N       -1.1589  -1.2753  -1.0130
N       -1.4552  -0.0298  1.2907
H       2.9198  -2.5615  0.4534
H       1.6936  -2.6638  -0.7948
H       -3.0838  -0.4616  -0.8529
H       -3.0742  -2.2147  -0.7779
H       1.6598  1.0884  -1.2980
H       1.1961  -0.1414  -2.2219
H       -1.9139  0.8595  1.1778
H       -1.0793  -0.0217  2.2207
H       -2.0186  -2.0571  1.5358
H       -3.3705  -0.9540  1.5435
H       0.5611  -2.2323  1.2827
H       1.5295  -0.9771  1.6195
H       3.3096  -0.9232  -1.6803
H       3.2461  -0.0676  -0.1511
H       -0.7669  -2.1989  -1.0142
H       -1.2003  -0.9600  -1.9644
