27

Co      -0.0032  -0.0180  -0.0011
Cl      -1.0905  1.6162  -1.2176
Cl      1.1593  1.4446  1.3647
C       2.6764  -0.7095  -0.8252
C       2.1284  -1.9255  -0.1025
C       -2.5148  -1.2991  -0.4392
C       -2.4265  -1.1583  1.0689
N       1.5111  0.0673  -1.3275
N       1.0570  -1.4746  0.8414
N       -1.1260  -1.3018  -1.0123
N       -1.4891  -0.0432  1.3481
H       2.9028  -2.4526  0.4304
H       1.6832  -2.6150  -0.8048
H       -3.0279  -0.4542  -0.8613
H       -3.0390  -2.1969  -0.7248
H       1.7281  1.0455  -1.3892
H       1.2442  -0.2189  -2.2490
H       -1.9375  0.8478  1.2274
H       -1.1476  -0.0546  2.2900
H       -2.0366  -2.0557  1.5277
H       -3.4001  -0.9733  1.4925
H       0.5327  -2.2632  1.1650
H       1.4790  -1.0505  1.6468
H       3.3308  -1.0015  -1.6301
H       3.2284  -0.0790  -0.1511
H       -0.7673  -2.2366  -1.0367
H       -1.1771  -0.9722  -1.9571
