27

Co      -0.0332  -0.0035  0.0022
Cl      -1.0858  1.6019  -1.2089
Cl      1.1639  1.4422  1.3605
C       2.6906  -0.7248  -0.8299
C       2.1581  -1.9402  -0.0989
C       -2.5501  -1.3071  -0.4473
C       -2.4105  -1.1565  1.0498
N       1.5208  0.0722  -1.3012
N       1.0930  -1.4881  0.8510
N       -1.1535  -1.2715  -0.9906
N       -1.4552  -0.0466  1.2892
H       2.9439  -2.4570  0.4311
H       1.7155  -2.6438  -0.7904
H       -3.0996  -0.4887  -0.8797
H       -3.0337  -2.2335  -0.7180
H       1.7509  1.0521  -1.3241
H       1.2620  -0.1746  -2.2359
H       -1.9107  0.8449  1.1967
H       -1.0889  -0.0648  2.2202
H       -1.9987  -2.0566  1.4878
H       -3.3570  -0.9631  1.5302
H       0.6056  -2.2837  1.2170
H       1.5283  -1.0267  1.6317
H       3.3213  -1.0162  -1.6567
H       3.2691  -0.1046  -0.1659
H       -0.7652  -2.1955  -0.9723
H       -1.1846  -0.9735  -1.9463
