27

Co      0.0246  0.0128  0.0175
Cl      -1.0980  1.6201  -1.2280
Cl      1.1322  1.3984  1.3309
C       2.6751  -0.7053  -0.8170
C       2.1218  -1.9261  -0.1048
C       -2.5293  -1.3154  -0.4401
C       -2.4426  -1.1588  1.0655
N       1.5128  0.0643  -1.3297
N       1.0799  -1.4689  0.8634
N       -1.1364  -1.2924  -1.0085
N       -1.4877  -0.0576  1.3511
H       2.8972  -2.4791  0.3973
H       1.6485  -2.5930  -0.8131
H       -3.0624  -0.4869  -0.8715
H       -3.0316  -2.2284  -0.7141
H       1.7375  1.0356  -1.4462
H       1.2217  -0.2666  -2.2303
H       -1.9329  0.8378  1.2449
H       -1.1533  -0.0886  2.2946
H       -2.0715  -2.0628  1.5310
H       -3.4154  -0.9544  1.4864
H       0.5390  -2.2508  1.1794
H       1.5191  -1.0656  1.6692
H       3.3425  -0.9934  -1.6153
H       3.2176  -0.0770  -0.1336
H       -0.7744  -2.2241  -1.0483
H       -1.1900  -0.9461  -1.9470
