27

Co      -0.0003  0.0025  0.0046
Cl      -1.0997  1.6319  -1.2300
Cl      1.1483  1.4250  1.3482
C       2.6698  -0.7140  -0.8262
C       2.1432  -1.9388  -0.0964
C       -2.5092  -1.3029  -0.4417
C       -2.4219  -1.1531  1.0677
N       1.5118  0.0788  -1.3233
N       1.0847  -1.5179  0.8749
N       -1.1293  -1.3306  -1.0367
N       -1.4923  -0.0348  1.3754
H       2.9417  -2.4591  0.4058
H       1.6916  -2.6278  -0.7944
H       -3.0141  -0.4544  -0.8684
H       -3.0547  -2.1933  -0.7105
H       1.7435  1.0525  -1.3887
H       1.2344  -0.2047  -2.2428
H       -1.9442  0.8571  1.2903
H       -1.1373  -0.0810  2.3116
H       -2.0318  -2.0497  1.5275
H       -3.4033  -0.9784  1.4805
H       0.5622  -2.3170  1.1781
H       1.5070  -1.1109  1.6895
H       3.3175  -1.0079  -1.6366
H       3.2321  -0.0870  -0.1571
H       -0.7750  -2.2665  -1.0552
H       -1.1864  -1.0065  -1.9827
