27

Co      0.0352  0.0126  0.0045
Cl      -1.0853  1.6033  -1.2156
Cl      1.1450  1.4265  1.3455
C       2.6392  -0.7086  -0.8396
C       2.1392  -1.9409  -0.0750
C       -2.5359  -1.3297  -0.4502
C       -2.4296  -1.1441  1.0655
N       1.4562  0.0908  -1.2628
N       1.0436  -1.4800  0.8354
N       -1.1550  -1.3295  -1.0519
N       -1.4575  -0.0485  1.3419
H       2.9822  -2.4118  0.4107
H       1.6839  -2.6663  -0.7342
H       -3.0288  -0.4989  -0.9265
H       -3.1126  -2.2292  -0.6324
H       1.7339  1.0514  -1.3896
H       1.2330  -0.2207  -2.1911
H       -1.9336  0.8345  1.2718
H       -1.1551  -0.0996  2.2973
H       -2.0503  -2.0262  1.5627
H       -3.4165  -0.9515  1.4611
H       0.5107  -2.2730  1.1411
H       1.5234  -1.1516  1.6609
H       3.2970  -1.0421  -1.6284
H       3.1939  -0.0488  -0.1915
H       -0.8672  -2.2890  -1.1179
H       -1.2610  -1.0131  -2.0019
