27

Co      0.0249  -0.0027  0.0156
Cl      -1.1056  1.6360  -1.2357
Cl      1.1399  1.4115  1.3408
C       2.6357  -0.7119  -0.7977
C       2.1069  -1.8966  -0.0932
C       -2.5176  -1.3164  -0.4378
C       -2.4311  -1.1503  1.0634
N       1.5172  0.0741  -1.3373
N       1.1126  -1.5013  0.8722
N       -1.1469  -1.3195  -1.0436
N       -1.4921  -0.0427  1.3668
H       2.9170  -2.4510  0.3554
H       1.6331  -2.5506  -0.8125
H       -3.0421  -0.4799  -0.8628
H       -3.0503  -2.2166  -0.6970
H       1.7627  1.0411  -1.4388
H       1.2456  -0.2455  -2.2462
H       -1.9343  0.8543  1.2774
H       -1.1489  -0.0941  2.3063
H       -2.0628  -2.0467  1.5435
H       -3.4171  -0.9536  1.4600
H       0.5904  -2.3026  1.1681
H       1.5372  -1.1004  1.6876
H       3.2775  -1.0706  -1.5900
H       3.2214  -0.0830  -0.1524
H       -0.7979  -2.2561  -1.1025
H       -1.2172  -0.9601  -1.9773
