27

Co      -0.0219  0.0059  -0.0146
Cl      -1.0766  1.5971  -1.2081
Cl      1.1792  1.4704  1.3876
C       2.7127  -0.7045  -0.8223
C       2.1609  -1.9925  -0.0934
C       -2.5453  -1.3436  -0.4605
C       -2.4440  -1.1618  1.0719
N       1.4776  0.0751  -1.3299
N       1.0572  -1.4839  0.8465
N       -1.1480  -1.3078  -1.0319
N       -1.4587  -0.0444  1.3519
H       2.8947  -2.5751  0.4517
H       1.6900  -2.6399  -0.8225
H       -3.0658  -0.4971  -0.8806
H       -3.0622  -2.2427  -0.7572
H       1.6814  1.0554  -1.4162
H       1.2111  -0.2356  -2.2446
H       -1.9033  0.8573  1.3123
H       -1.0637  -0.1143  2.2734
H       -2.0855  -2.0548  1.5644
H       -3.4081  -0.9233  1.4942
H       0.5081  -2.2419  1.2043
H       1.4894  -1.0343  1.6341
H       3.3622  -0.9387  -1.6519
H       3.2427  -0.0543  -0.1440
H       -0.7529  -2.2298  -1.0437
H       -1.1959  -0.9853  -1.9788
