27

Co      -0.0112  -0.0102  0.0032
Cl      -1.1103  1.6454  -1.2302
Cl      1.1822  1.4789  1.3851
C       2.6924  -0.7290  -0.8333
C       2.1660  -1.9485  -0.0998
C       -2.5710  -1.3128  -0.4459
C       -2.4255  -1.1762  1.0530
N       1.5288  0.0696  -1.3207
N       1.0908  -1.5295  0.8603
N       -1.1749  -1.3334  -0.9962
N       -1.4800  -0.0550  1.2974
H       2.9628  -2.4601  0.4211
H       1.7306  -2.6507  -0.7966
H       -3.0798  -0.4641  -0.8696
H       -3.1021  -2.2102  -0.7260
H       1.7617  1.0487  -1.3568
H       1.2642  -0.1874  -2.2491
H       -1.9396  0.8306  1.1827
H       -1.1290  -0.0605  2.2373
H       -2.0055  -2.0751  1.4835
H       -3.3740  -0.9972  1.5335
H       0.5820  -2.3351  1.1705
H       1.5088  -1.1128  1.6733
H       3.3316  -1.0263  -1.6496
H       3.2650  -0.1014  -0.1697
H       -0.8118  -2.2689  -0.9630
H       -1.2003  -1.0558  -1.9596
