27

Co      0.0163  0.0085  0.0330
Cl      -1.0824  1.6051  -1.2201
Cl      1.1171  1.3814  1.3152
C       2.6255  -0.7026  -0.8299
C       2.0845  -1.8600  -0.1032
C       -2.4826  -1.2984  -0.4419
C       -2.3997  -1.1191  1.0482
N       1.5136  0.0552  -1.3097
N       1.0402  -1.4563  0.8332
N       -1.1103  -1.3068  -1.0287
N       -1.4502  -0.0547  1.3539
H       2.9443  -2.3370  0.3450
H       1.6211  -2.5778  -0.7629
H       -2.9972  -0.4998  -0.9481
H       -3.0355  -2.2220  -0.5842
H       1.7872  1.0115  -1.4683
H       1.3038  -0.2971  -2.2296
H       -1.9183  0.8330  1.2878
H       -1.1638  -0.1198  2.3120
H       -2.0160  -2.0141  1.5220
H       -3.3947  -0.9567  1.4362
H       0.5531  -2.2856  1.1216
H       1.5283  -1.1508  1.6643
H       3.3369  -1.0997  -1.5541
H       3.1561  -0.0504  -0.1620
H       -0.8334  -2.2688  -1.0906
H       -1.2049  -0.9893  -1.9755
