27

Co      -0.0364  -0.0185  -0.0004
Cl      -1.0834  1.6091  -1.2125
Cl      1.1630  1.4475  1.3662
C       2.6862  -0.7132  -0.8237
C       2.1368  -1.9292  -0.1055
C       -2.5179  -1.2986  -0.4450
C       -2.4124  -1.1537  1.0567
N       1.5170  0.0611  -1.3270
N       1.0624  -1.4793  0.8370
N       -1.1162  -1.2646  -0.9747
N       -1.4535  -0.0520  1.3093
H       2.9094  -2.4579  0.4310
H       1.6961  -2.6210  -0.8092
H       -3.0542  -0.4735  -0.8786
H       -3.0028  -2.2189  -0.7326
H       1.7301  1.0427  -1.3650
H       1.2694  -0.2083  -2.2589
H       -1.9004  0.8434  1.2149
H       -1.0888  -0.0721  2.2410
H       -2.0200  -2.0562  1.5065
H       -3.3682  -0.9520  1.5110
H       0.5695  -2.2749  1.1926
H       1.4915  -1.0276  1.6257
H       3.3414  -1.0042  -1.6291
H       3.2366  -0.0835  -0.1483
H       -0.7275  -2.1882  -0.9522
H       -1.1424  -0.9703  -1.9310
