27

Co      -0.0320  -0.0013  -0.0000
Cl      -1.0870  1.6031  -1.2101
Cl      1.1651  1.4435  1.3629
C       2.7258  -0.7126  -0.8291
C       2.1700  -1.9789  -0.0926
C       -2.5555  -1.3160  -0.4556
C       -2.4170  -1.1670  1.0612
N       1.5170  0.0973  -1.3456
N       1.0929  -1.5052  0.8901
N       -1.1578  -1.2970  -1.0189
N       -1.4696  -0.0215  1.3268
H       2.8700  -2.5713  0.4885
H       1.7190  -2.6307  -0.8345
H       -3.1076  -0.4644  -0.8225
H       -3.0274  -2.2194  -0.8223
H       1.6894  1.0909  -1.3317
H       1.1687  -0.1375  -2.2573
H       -1.8956  0.8830  1.2282
H       -1.0470  -0.0432  2.2368
H       -2.0198  -2.0727  1.4969
H       -3.3528  -0.9464  1.5537
H       0.5376  -2.2660  1.2280
H       1.4603  -0.9900  1.6780
H       3.3047  -0.9290  -1.7242
H       3.3292  -0.1101  -0.1674
H       -0.7059  -2.1968  -1.0019
H       -1.1542  -0.9462  -1.9571
