27

Co      0.0126  0.0336  -0.0058
Cl      -1.0712  1.5863  -1.1988
Cl      1.1387  1.4084  1.3421
C       2.6015  -0.7135  -0.7961
C       2.1055  -1.8956  -0.1186
C       -2.4925  -1.2784  -0.4337
C       -2.3954  -1.1416  1.0467
N       1.4844  0.0384  -1.2813
N       1.0772  -1.4839  0.8239
N       -1.1241  -1.3507  -1.0280
N       -1.4842  -0.0496  1.3568
H       2.9398  -2.3453  0.3993
H       1.7028  -2.6368  -0.7930
H       -3.0010  -0.4455  -0.8786
H       -3.0451  -2.1754  -0.6598
H       1.7410  1.0003  -1.4203
H       1.1752  -0.2966  -2.1750
H       -1.9385  0.8410  1.2702
H       -1.1432  -0.0977  2.2940
H       -1.9950  -2.0508  1.4733
H       -3.3756  -0.9933  1.4725
H       0.5595  -2.2859  1.1241
H       1.4994  -1.0872  1.6409
H       3.2870  -0.9869  -1.5808
H       3.1331  -0.1013  -0.0898
H       -0.7908  -2.2923  -0.9947
H       -1.1880  -1.0862  -1.9940
