27

Co      0.0249  -0.0039  0.0141
Cl      -1.0969  1.6293  -1.2274
Cl      1.1299  1.3990  1.3339
C       2.6123  -0.6945  -0.7872
C       2.0822  -1.8867  -0.0964
C       -2.4912  -1.2955  -0.4436
C       -2.4029  -1.1443  1.0591
N       1.4952  0.0748  -1.3480
N       1.0932  -1.5018  0.8775
N       -1.1188  -1.3340  -1.0388
N       -1.4770  -0.0307  1.3690
H       2.8922  -2.4512  0.3396
H       1.6030  -2.5291  -0.8246
H       -2.9871  -0.4395  -0.8622
H       -3.0506  -2.1760  -0.7112
H       1.7304  1.0417  -1.4697
H       1.2234  -0.2678  -2.2506
H       -1.9242  0.8639  1.2770
H       -1.1331  -0.0767  2.3067
H       -2.0194  -2.0410  1.5259
H       -3.3892  -0.9675  1.4631
H       0.5691  -2.3030  1.1681
H       1.5190  -1.1103  1.6963
H       3.2738  -1.0440  -1.5659
H       3.1738  -0.0594  -0.1298
H       -0.7795  -2.2734  -1.0615
H       -1.1748  -1.0053  -1.9828
