27

Co      0.0258  0.0111  0.0151
Cl      -1.0950  1.6116  -1.2195
Cl      1.1265  1.3871  1.3251
C       2.6667  -0.6971  -0.8207
C       2.1096  -1.9153  -0.1009
C       -2.5150  -1.2946  -0.4416
C       -2.4214  -1.1576  1.0677
N       1.5182  0.0826  -1.3479
N       1.0835  -1.4817  0.8940
N       -1.1333  -1.3164  -1.0358
N       -1.5062  -0.0283  1.3710
H       2.8950  -2.4800  0.3718
H       1.6181  -2.5694  -0.8105
H       -3.0200  -0.4406  -0.8567
H       -3.0592  -2.1810  -0.7179
H       1.7439  1.0541  -1.4522
H       1.2322  -0.2413  -2.2526
H       -1.9664  0.8575  1.2495
H       -1.1766  -0.0463  2.3161
H       -2.0131  -2.0537  1.5159
H       -3.4025  -1.0013  1.4922
H       0.5481  -2.2710  1.2011
H       1.5231  -1.0839  1.7016
H       3.3363  -1.0015  -1.6117
H       3.2120  -0.0677  -0.1412
H       -0.7910  -2.2559  -1.0775
H       -1.1896  -0.9677  -1.9736
