27

Co      0.0097  0.0025  -0.0085
Cl      -1.0896  1.6132  -1.2168
Cl      1.1584  1.4393  1.3630
C       2.6610  -0.7118  -0.8186
C       2.1372  -1.9410  -0.1004
C       -2.5116  -1.3052  -0.4396
C       -2.4275  -1.1539  1.0726
N       1.4925  0.0707  -1.3055
N       1.0770  -1.4896  0.8524
N       -1.1409  -1.3469  -1.0622
N       -1.5061  -0.0307  1.3862
H       2.9269  -2.4572  0.4203
H       1.6905  -2.6334  -0.7971
H       -3.0107  -0.4497  -0.8595
H       -3.0744  -2.1866  -0.7034
H       1.7239  1.0433  -1.3929
H       1.2045  -0.2290  -2.2171
H       -1.9580  0.8600  1.2899
H       -1.1576  -0.0709  2.3253
H       -2.0400  -2.0473  1.5381
H       -3.4155  -0.9832  1.4723
H       0.5397  -2.2723  1.1702
H       1.5009  -1.0709  1.6589
H       3.3133  -0.9814  -1.6321
H       3.2116  -0.0845  -0.1388
H       -0.7994  -2.2881  -1.1039
H       -1.2177  -1.0088  -2.0039
