27

Co      -0.0154  0.0041  -0.0324
Cl      -1.0837  1.5943  -1.1948
Cl      1.1838  1.4728  1.3902
C       2.6723  -0.7285  -0.8080
C       2.1596  -1.9541  -0.1110
C       -2.5527  -1.2816  -0.4316
C       -2.4218  -1.1868  1.0617
N       1.5154  0.0667  -1.3150
N       1.1095  -1.5144  0.8559
N       -1.1648  -1.3258  -1.0021
N       -1.5250  -0.0355  1.3211
H       2.9149  -2.4591  0.4776
H       1.7649  -2.6673  -0.8226
H       -3.0784  -0.4123  -0.7910
H       -3.0563  -2.1655  -0.7998
H       1.7217  1.0532  -1.3138
H       1.1627  -0.1662  -2.2242
H       -1.9672  0.8536  1.1671
H       -1.1306  -0.0125  2.2430
H       -1.9909  -2.0964  1.4584
H       -3.3680  -1.0245  1.5558
H       0.5730  -2.2891  1.1904
H       1.4662  -0.9950  1.6456
H       3.2831  -0.9331  -1.6773
H       3.2547  -0.1418  -0.1149
H       -0.7415  -2.2381  -0.9353
H       -1.1753  -1.0406  -1.9638
