27

Co      -0.0177  -0.0325  -0.0324
Cl      -1.0809  1.6042  -1.2048
Cl      1.1808  1.4761  1.3929
C       2.6478  -0.7040  -0.8118
C       2.1274  -1.9392  -0.1000
C       -2.5120  -1.2977  -0.4363
C       -2.4219  -1.1542  1.0721
N       1.4835  0.0775  -1.3158
N       1.0725  -1.4953  0.8619
N       -1.1267  -1.2888  -1.0201
N       -1.4802  -0.0407  1.3342
H       2.9238  -2.4555  0.4138
H       1.6802  -2.6320  -0.7966
H       -3.0349  -0.4560  -0.8562
H       -3.0288  -2.1991  -0.7234
H       1.7027  1.0594  -1.3384
H       1.2401  -0.1769  -2.2539
H       -1.9261  0.8530  1.2223
H       -1.1164  -0.0513  2.2675
H       -2.0347  -2.0488  1.5353
H       -3.3947  -0.9617  1.4944
H       0.5801  -2.2836  1.2344
H       1.5043  -1.0214  1.6372
H       3.3131  -0.9685  -1.6163
H       3.1831  -0.0744  -0.1238
H       -0.7584  -2.2209  -1.0390
H       -1.1905  -0.9690  -1.9685
