27

Co      0.0281  0.0217  0.0142
Cl      -1.0889  1.6199  -1.2221
Cl      1.1484  1.4301  1.3543
C       2.6107  -0.7127  -0.8062
C       2.1011  -1.8853  -0.1179
C       -2.5059  -1.3073  -0.4378
C       -2.4048  -1.1306  1.0433
N       1.4987  0.0373  -1.3002
N       1.0670  -1.4937  0.8334
N       -1.1529  -1.4023  -1.0744
N       -1.4769  -0.0553  1.3767
H       2.9314  -2.3480  0.3923
H       1.6893  -2.6149  -0.7979
H       -3.0194  -0.4852  -0.8993
H       -3.0776  -2.2082  -0.6215
H       1.7489  0.9984  -1.4574
H       1.1754  -0.3154  -2.1838
H       -1.9126  0.8453  1.3053
H       -1.1435  -0.1325  2.3176
H       -2.0336  -2.0404  1.4903
H       -3.3892  -0.9593  1.4478
H       0.5282  -2.3039  1.0795
H       1.4781  -1.1422  1.6798
H       3.2931  -1.0115  -1.5844
H       3.1524  -0.0956  -0.1119
H       -0.8444  -2.3531  -1.1037
H       -1.2328  -1.0837  -2.0214
