27

Co      -0.0097  0.0032  0.0071
Cl      -1.0913  1.6205  -1.2240
Cl      1.1629  1.4518  1.3664
C       2.7042  -0.7071  -0.8322
C       2.1514  -1.9616  -0.1181
C       -2.5546  -1.3264  -0.4426
C       -2.4372  -1.1564  1.0508
N       1.5117  0.0581  -1.3348
N       1.0519  -1.4935  0.8696
N       -1.1466  -1.2933  -0.9801
N       -1.4451  -0.0809  1.3053
H       2.8682  -2.4868  0.5034
H       1.7414  -2.6697  -0.8285
H       -3.1460  -0.5266  -0.8607
H       -2.9747  -2.2755  -0.7632
H       1.6782  1.0490  -1.3658
H       1.1310  -0.2094  -2.2266
H       -1.8410  0.8389  1.1995
H       -1.0469  -0.1095  2.2238
H       -2.0934  -2.0872  1.4825
H       -3.3648  -0.8896  1.5371
H       0.4882  -2.2644  1.1701
H       1.4183  -1.0220  1.6797
H       3.3444  -0.8751  -1.6948
H       3.2482  -0.1146  -0.1145
H       -0.7036  -2.1943  -0.9647
H       -1.1457  -0.9502  -1.9204
