27

Co      -0.0041  -0.0306  -0.0017
Cl      -1.1011  1.6406  -1.2338
Cl      1.1727  1.4691  1.3804
C       2.7081  -0.7018  -0.8179
C       2.1516  -1.9768  -0.0983
C       -2.5345  -1.3298  -0.4477
C       -2.4431  -1.1627  1.0754
N       1.4879  0.0796  -1.3417
N       1.0579  -1.4872  0.8609
N       -1.1372  -1.3135  -1.0251
N       -1.4693  -0.0437  1.3547
H       2.8376  -2.5659  0.5059
H       1.7125  -2.6274  -0.8478
H       -3.0782  -0.4780  -0.8226
H       -3.0116  -2.2311  -0.8171
H       1.6418  1.0740  -1.3605
H       1.1293  -0.1860  -2.2418
H       -1.8678  0.8726  1.2387
H       -1.0659  -0.0669  2.2742
H       -2.1060  -2.0726  1.5500
H       -3.3942  -0.8969  1.5119
H       0.4703  -2.2355  1.1754
H       1.4151  -0.9937  1.6652
H       3.3039  -0.8962  -1.7037
H       3.2848  -0.0919  -0.1432
H       -0.7024  -2.2190  -1.0582
H       -1.1535  -0.9252  -1.9505
