27

Co      -0.0288  -0.0350  -0.0074
Cl      -1.0898  1.6238  -1.2189
Cl      1.1694  1.4583  1.3736
C       2.6694  -0.7120  -0.8149
C       2.1407  -1.9396  -0.1061
C       -2.5094  -1.2971  -0.4432
C       -2.4062  -1.1463  1.0612
N       1.4862  0.0593  -1.2871
N       1.0694  -1.4694  0.8286
N       -1.1175  -1.2856  -1.0036
N       -1.4524  -0.0435  1.3176
H       2.9159  -2.4567  0.4382
H       1.7036  -2.6386  -0.8043
H       -3.0360  -0.4644  -0.8725
H       -3.0165  -2.2076  -0.7219
H       1.6960  1.0424  -1.3202
H       1.2293  -0.2005  -2.2198
H       -1.8938  0.8535  1.2090
H       -1.0940  -0.0554  2.2530
H       -2.0196  -2.0455  1.5192
H       -3.3680  -0.9440  1.5007
H       0.5758  -2.2534  1.2089
H       1.5046  -0.9967  1.6036
H       3.3152  -0.9723  -1.6367
H       3.2202  -0.0877  -0.1343
H       -0.7458  -2.2157  -1.0073
H       -1.1622  -0.9721  -1.9536
