27

Co      0.0117  0.0185  -0.0082
Cl      -1.0776  1.6010  -1.2052
Cl      1.1451  1.4203  1.3494
C       2.6193  -0.6960  -0.8249
C       2.1185  -1.9309  -0.1149
C       -2.4968  -1.2839  -0.4453
C       -2.3895  -1.1342  1.0528
N       1.4544  0.0528  -1.2580
N       1.0473  -1.4819  0.8512
N       -1.1189  -1.3532  -1.0392
N       -1.4589  -0.0474  1.3427
H       2.9867  -2.3770  0.3571
H       1.6628  -2.6719  -0.7555
H       -2.9691  -0.4488  -0.9363
H       -3.0969  -2.1747  -0.6030
H       1.7210  1.0142  -1.4114
H       1.2301  -0.2850  -2.1784
H       -1.9463  0.8301  1.2626
H       -1.1598  -0.0862  2.2986
H       -1.9676  -2.0273  1.4929
H       -3.3762  -1.0068  1.4721
H       0.5651  -2.2892  1.2017
H       1.5579  -1.1303  1.6464
H       3.3670  -0.9562  -1.5658
H       3.0814  -0.0471  -0.0939
H       -0.8526  -2.3217  -1.0335
H       -1.2122  -1.1058  -2.0108
