27

Co      -0.0251  -0.0131  -0.0144
Cl      -1.0900  1.6086  -1.2104
Cl      1.1894  1.4791  1.3972
C       2.7171  -0.7261  -0.7918
C       2.1541  -1.9579  -0.1066
C       -2.5564  -1.3221  -0.4442
C       -2.4480  -1.1846  1.0713
N       1.5265  0.0560  -1.3498
N       1.1141  -1.4700  0.8269
N       -1.1680  -1.3042  -1.0197
N       -1.5133  -0.0334  1.3472
H       2.8443  -2.5741  0.4706
H       1.7095  -2.5831  -0.8755
H       -3.0957  -0.4543  -0.7942
H       -3.0434  -2.2101  -0.8331
H       1.7085  1.0443  -1.3877
H       1.1954  -0.2281  -2.2500
H       -1.9378  0.8693  1.2343
H       -1.1002  -0.0509  2.2631
H       -2.0685  -2.0863  1.5291
H       -3.4019  -0.9625  1.5226
H       0.5561  -2.2193  1.1851
H       1.4768  -0.9329  1.6045
H       3.3067  -0.9701  -1.6639
H       3.3145  -0.1164  -0.1324
H       -0.7210  -2.2081  -1.0167
H       -1.1826  -0.9519  -1.9572
