27

Co      -0.0290  -0.0308  -0.0168
Cl      -1.0940  1.6315  -1.2266
Cl      1.1764  1.4730  1.3840
C       2.6649  -0.7144  -0.8157
C       2.1456  -1.9477  -0.0999
C       -2.5239  -1.3163  -0.4368
C       -2.4374  -1.1546  1.0650
N       1.4974  0.0672  -1.3154
N       1.0766  -1.5107  0.8539
N       -1.1182  -1.2484  -0.9672
N       -1.4479  -0.0740  1.3035
H       2.9408  -2.4566  0.4248
H       1.7116  -2.6499  -0.7965
H       -3.0807  -0.5070  -0.8799
H       -2.9815  -2.2532  -0.7267
H       1.7159  1.0502  -1.3282
H       1.2594  -0.1780  -2.2573
H       -1.8788  0.8304  1.2181
H       -1.0729  -0.1036  2.2324
H       -2.0849  -2.0604  1.5397
H       -3.3954  -0.9099  1.4968
H       0.5936  -2.3082  1.2206
H       1.5063  -1.0431  1.6354
H       3.3236  -0.9869  -1.6243
H       3.2092  -0.0861  -0.1347
H       -0.7174  -2.1675  -0.9610
H       -1.1596  -0.9450  -1.9208
