27

Co      -0.0253  -0.0126  -0.0271
Cl      -1.0813  1.5998  -1.2001
Cl      1.1795  1.4688  1.3924
C       2.6709  -0.7058  -0.7956
C       2.1195  -1.9311  -0.1222
C       -2.5290  -1.2861  -0.4330
C       -2.4241  -1.1752  1.0613
N       1.5268  0.0576  -1.3739
N       1.0939  -1.5063  0.8788
N       -1.1334  -1.2905  -0.9815
N       -1.5018  -0.0492  1.3235
H       2.8612  -2.4926  0.4280
H       1.6861  -2.5955  -0.8584
H       -3.0757  -0.4360  -0.8065
H       -2.9972  -2.1892  -0.8028
H       1.7079  1.0470  -1.3920
H       1.2009  -0.2128  -2.2800
H       -1.9266  0.8519  1.1879
H       -1.0981  -0.0441  2.2408
H       -2.0253  -2.0914  1.4748
H       -3.3716  -0.9824  1.5383
H       0.5752  -2.2874  1.2233
H       1.4647  -0.9848  1.6592
H       3.3322  -0.9237  -1.6204
H       3.2068  -0.1059  -0.0814
H       -0.6965  -2.1970  -0.9286
H       -1.1355  -0.9867  -1.9352
