27

Co      -0.0331  -0.0094  -0.0132
Cl      -1.0857  1.6141  -1.2048
Cl      1.1873  1.4849  1.3969
C       2.6701  -0.7117  -0.8174
C       2.1411  -1.9422  -0.1074
C       -2.5427  -1.2936  -0.4542
C       -2.3913  -1.1651  1.0464
N       1.5044  0.0646  -1.3326
N       1.0740  -1.5247  0.8595
N       -1.1511  -1.3456  -1.0039
N       -1.4602  -0.0379  1.2998
H       2.9358  -2.4674  0.4033
H       1.7000  -2.6298  -0.8146
H       -3.0318  -0.4308  -0.8737
H       -3.0982  -2.1751  -0.7335
H       1.7264  1.0446  -1.3849
H       1.2520  -0.2148  -2.2586
H       -1.9258  0.8473  1.2075
H       -1.0881  -0.0543  2.2294
H       -1.9536  -2.0626  1.4639
H       -3.3398  -1.0081  1.5346
H       0.5799  -2.3282  1.1939
H       1.4982  -1.0892  1.6584
H       3.3393  -0.9881  -1.6151
H       3.2052  -0.0761  -0.1320
H       -0.7890  -2.2814  -0.9280
H       -1.1680  -1.1063  -1.9797
