27

Co      -0.0759  -0.0480  -0.0762
Cl      -1.0467  1.5447  -1.1642
Cl      1.2086  1.5175  1.4356
C       2.6622  -0.6946  -0.8199
C       2.1008  -1.9165  -0.0974
C       -2.5063  -1.2823  -0.4254
C       -2.4438  -1.1742  1.0818
N       1.5461  0.0990  -1.4395
N       1.0570  -1.5368  0.9091
N       -1.0947  -1.1680  -0.9321
N       -1.4952  -0.0569  1.3003
H       2.9105  -2.4607  0.3738
H       1.6367  -2.5857  -0.8055
H       -3.0696  -0.4593  -0.8408
H       -2.9356  -2.2140  -0.7759
H       1.7605  1.0901  -1.3693
H       1.4029  -0.1057  -2.4212
H       -1.9506  0.8331  1.2005
H       -1.0887  -0.0527  2.2161
H       -2.0447  -2.0694  1.5378
H       -3.4097  -0.9793  1.5207
H       0.6353  -2.3590  1.3115
H       1.4838  -1.0160  1.6632
H       3.3819  -1.0193  -1.5616
H       3.1609  -0.0462  -0.1239
H       -0.6582  -2.0776  -0.8951
H       -1.1305  -0.8936  -1.8963
