27

Co      0.0123  0.1000  0.0014
Cl      -1.0367  1.5350  -1.1652
Cl      1.1017  1.3501  1.3052
C       2.6000  -0.6724  -0.7851
C       2.0823  -1.9285  -0.1089
C       -2.4862  -1.2676  -0.4721
C       -2.3498  -1.1497  1.0305
N       1.4355  0.0614  -1.3402
N       1.0357  -1.5103  0.8621
N       -1.0900  -1.3785  -0.9961
N       -1.4315  -0.0268  1.3496
H       2.8809  -2.4617  0.3753
H       1.6363  -2.5998  -0.8310
H       -2.9308  -0.3823  -0.8948
H       -3.0840  -2.1190  -0.7455
H       1.6735  1.0183  -1.5770
H       1.1094  -0.3704  -2.2012
H       -1.9157  0.8574  1.3322
H       -1.0485  -0.1117  2.2653
H       -1.9113  -2.0592  1.4295
H       -3.3097  -1.0198  1.5131
H       0.4668  -2.2934  1.1272
H       1.4629  -1.1659  1.7013
H       3.3188  -0.9096  -1.5579
H       3.0752  -0.0265  -0.0634
H       -0.7339  -2.3089  -0.8164
H       -1.0855  -1.2291  -2.0009
