27

Co      0.0812  0.0384  0.0858
Cl      -1.1301  1.6740  -1.2722
Cl      1.0953  1.3297  1.2750
C       2.5819  -0.7350  -0.7247
C       2.0921  -1.8562  -0.1027
C       -2.5356  -1.3644  -0.4549
C       -2.4037  -1.1098  1.0260
N       1.4671  0.0111  -1.2038
N       1.2041  -1.4069  0.7759
N       -1.2105  -1.4105  -1.1417
N       -1.4412  -0.0399  1.3778
H       2.8951  -2.4478  0.3152
H       1.6072  -2.4724  -0.8538
H       -3.0805  -0.5562  -0.9000
H       -3.1112  -2.2731  -0.6042
H       1.7498  0.9527  -1.4967
H       1.1008  -0.4475  -2.0410
H       -1.8584  0.8772  1.3509
H       -1.1199  -0.1764  2.3214
H       -2.0884  -2.0102  1.5463
H       -3.3948  -0.8674  1.3936
H       0.6358  -2.1713  1.0803
H       1.6525  -1.0261  1.5871
H       3.1517  -1.1302  -1.5599
H       3.2477  -0.1265  -0.1250
H       -0.9083  -2.3588  -1.2771
H       -1.3200  -0.9838  -2.0498
