27

Co      -0.0245  -0.0074  0.0045
Cl      -1.0543  1.5522  -1.1721
Cl      1.1839  1.4860  1.3976
C       2.6687  -0.6930  -0.8235
C       2.0948  -1.8982  -0.1052
C       -2.6078  -1.3289  -0.4637
C       -2.4006  -1.1612  1.0169
N       1.5092  0.0631  -1.3689
N       1.0172  -1.4584  0.8372
N       -1.1828  -1.2460  -0.9219
N       -1.3768  -0.0917  1.1700
H       2.8580  -2.4449  0.4308
H       1.6513  -2.5842  -0.8185
H       -3.1917  -0.5415  -0.9154
H       -3.0336  -2.2907  -0.7285
H       1.7164  1.0454  -1.4385
H       1.2597  -0.2427  -2.2856
H       -1.8189  0.8088  1.0685
H       -1.0116  -0.0855  2.0971
H       -1.9965  -2.0766  1.4339
H       -3.2963  -0.9098  1.5816
H       0.5119  -2.2556  1.1655
H       1.4439  -1.0368  1.6410
H       3.3488  -1.0056  -1.6043
H       3.2009  -0.0493  -0.1440
H       -0.7775  -2.1625  -0.8456
H       -1.1641  -0.9962  -1.8953
