27

Co      -0.0249  -0.0169  0.0510
Cl      -1.0759  1.5890  -1.1925
Cl      1.1363  1.3986  1.3293
C       2.6114  -0.7306  -0.7759
C       2.0709  -1.7984  -0.0901
C       -2.4967  -1.2574  -0.4659
C       -2.3033  -1.1303  1.0142
N       1.5376  0.0545  -1.3127
N       1.1099  -1.4371  0.7641
N       -1.1589  -1.3922  -1.0745
N       -1.4530  0.0361  1.3185
H       2.8677  -2.3634  0.3677
H       1.6345  -2.4479  -0.8394
H       -2.9525  -0.3685  -0.8539
H       -3.1381  -2.0996  -0.7018
H       1.7990  1.0163  -1.4271
H       1.2764  -0.2779  -2.2188
H       -1.9337  0.9104  1.2159
H       -1.1160  0.0130  2.2549
H       -1.8095  -2.0085  1.4272
H       -3.2702  -1.0483  1.4971
H       0.6107  -2.2561  1.0426
H       1.5012  -1.0402  1.5985
H       3.1617  -1.2380  -1.5857
H       3.3127  -0.1032  -0.2234
H       -0.8487  -2.3435  -1.0394
H       -1.1801  -1.1068  -2.0334
