27

Co      0.0037  -0.0064  -0.0067
Cl      -1.0455  1.5646  -1.1894
Cl      1.1156  1.3952  1.3268
C       2.5701  -0.6597  -0.8416
C       2.0583  -1.8775  -0.0613
C       -2.4004  -1.2707  -0.4530
C       -2.3483  -1.0924  1.0675
N       1.4551  0.1487  -1.3840
N       0.9748  -1.5562  0.9241
N       -1.0537  -1.3754  -1.1161
N       -1.4395  0.0200  1.4502
H       2.8903  -2.3585  0.4163
H       1.6252  -2.5875  -0.7500
H       -2.8733  -0.4118  -0.8908
H       -3.0104  -2.1344  -0.6770
H       1.6772  1.1197  -1.4266
H       1.1760  -0.1267  -2.3098
H       -1.8754  0.9230  1.4219
H       -1.0589  -0.0859  2.3678
H       -1.9770  -1.9818  1.5494
H       -3.3596  -0.9340  1.4229
H       0.4221  -2.3823  1.1056
H       1.3463  -1.2348  1.8091
H       3.2141  -1.0145  -1.6324
H       3.1429  -0.0158  -0.2032
H       -0.7332  -2.3180  -1.1690
H       -1.1349  -1.0207  -2.0513
