27

Co      -0.0616  -0.1050  -0.0687
Cl      -1.0927  1.6412  -1.2195
Cl      1.1938  1.4992  1.4059
C       2.6235  -0.7085  -0.7870
C       2.1527  -1.9736  -0.1019
C       -2.4702  -1.2637  -0.4190
C       -2.4155  -1.1535  1.0877
N       1.4277  0.0703  -1.2307
N       1.0937  -1.4822  0.8307
N       -1.0490  -1.1595  -0.9195
N       -1.4428  -0.0585  1.2664
H       2.9558  -2.4484  0.4470
H       1.7359  -2.7020  -0.7828
H       -3.0185  -0.4355  -0.8314
H       -2.9026  -2.1934  -0.7799
H       1.6256  1.0696  -1.1271
H       1.2407  -0.0753  -2.2201
H       -1.8743  0.8399  1.0990
H       -1.0688  0.0040  2.1992
H       -2.0482  -2.0520  1.5618
H       -3.3758  -0.9148  1.5149
H       0.6813  -2.2572  1.3587
H       1.5522  -0.8676  1.5240
H       3.2721  -0.9007  -1.6272
H       3.1512  -0.0956  -0.0823
H       -0.6285  -2.0726  -0.8908
H       -1.0956  -0.8773  -1.8816
