27

Co      -0.0484  -0.0312  -0.0729
Cl      -1.1026  1.6614  -1.2461
Cl      1.2120  1.5246  1.4256
C       2.6169  -0.7289  -0.7854
C       2.1935  -2.0198  -0.0923
C       -2.5071  -1.3517  -0.4228
C       -2.4748  -1.1403  1.0854
N       1.4395  0.0731  -1.2526
N       1.1507  -1.5985  0.8926
N       -1.1174  -1.2455  -1.0102
N       -1.4458  -0.0938  1.3476
H       3.0531  -2.4741  0.3983
H       1.7755  -2.7477  -0.7674
H       -3.1006  -0.5715  -0.8886
H       -2.9410  -2.3115  -0.6896
H       1.6853  1.0552  -1.2152
H       1.2213  -0.1155  -2.2183
H       -1.8503  0.8323  1.3577
H       -1.0040  -0.2082  2.2525
H       -2.2044  -2.0466  1.6205
H       -3.4575  -0.8297  1.4366
H       0.7152  -2.3955  1.3345
H       1.5951  -1.0495  1.6279
H       3.2822  -0.9184  -1.6147
H       3.1394  -0.1108  -0.0775
H       -0.6862  -2.1540  -1.0281
H       -1.2190  -0.9371  -1.9608
