27

Co      -0.1055  -0.0355  -0.0085
Cl      -1.0896  1.6362  -1.2393
Cl      1.1991  1.5052  1.4100
C       2.7518  -0.7357  -0.8401
C       2.1627  -1.9354  -0.1125
C       -2.4976  -1.3433  -0.4341
C       -2.4751  -1.1470  1.0723
N       1.6041  0.0410  -1.4164
N       1.0667  -1.5310  0.8426
N       -1.0910  -1.1971  -0.9478
N       -1.4591  -0.0944  1.3604
H       2.9302  -2.4838  0.4207
H       1.7245  -2.6101  -0.8291
H       -3.1045  -0.5793  -0.9123
H       -2.8897  -2.3227  -0.7161
H       1.8097  1.0279  -1.3995
H       1.4271  -0.2008  -2.3773
H       -1.8708  0.8270  1.3746
H       -1.0331  -0.2137  2.2701
H       -2.1749  -2.0570  1.5862
H       -3.4494  -0.8667  1.4485
H       0.6244  -2.3626  1.1920
H       1.4802  -1.0635  1.6344
H       3.4362  -1.0801  -1.6042
H       3.2889  -0.0917  -0.1695
H       -0.6367  -2.0989  -0.9629
H       -1.1278  -0.8676  -1.8894
