27

Co      0.0631  0.0743  0.0863
Cl      -1.0338  1.5227  -1.1833
Cl      1.0611  1.2964  1.2562
C       2.5249  -0.6775  -0.7561
C       1.9785  -1.7565  -0.0739
C       -2.4888  -1.3460  -0.4772
C       -2.3453  -1.0751  0.9978
N       1.4759  0.0676  -1.3650
N       1.0431  -1.4178  0.8022
N       -1.1544  -1.3664  -1.1024
N       -1.3556  -0.0319  1.3539
H       2.7825  -2.3419  0.3385
H       1.5162  -2.3811  -0.8343
H       -3.0558  -0.5681  -0.9493
H       -3.0262  -2.2785  -0.6082
H       1.7486  1.0042  -1.6722
H       1.1318  -0.4318  -2.1979
H       -1.7685  0.8941  1.4039
H       -0.9956  -0.2211  2.2689
H       -2.0317  -1.9842  1.5051
H       -3.3199  -0.8201  1.3992
H       0.4391  -2.2228  0.9453
H       1.4282  -1.1620  1.7088
H       3.1280  -1.1987  -1.5240
H       3.1814  -0.0329  -0.1882
H       -0.8238  -2.2980  -1.1719
H       -1.2180  -0.9874  -2.0271
