27

Co      -0.1088  -0.0653  -0.0470
Cl      -1.0991  1.6603  -1.2188
Cl      1.2747  1.6295  1.5075
C       2.8108  -0.7039  -0.8494
C       2.1919  -2.0263  -0.1806
C       -2.5690  -1.2893  -0.4377
C       -2.4253  -1.1946  1.0513
N       1.5768  0.0190  -1.4498
N       1.0137  -1.5639  0.9087
N       -1.1445  -1.3689  -0.9478
N       -1.4838  -0.0795  1.2937
H       2.7725  -2.5902  0.6196
H       1.8487  -2.7281  -0.9401
H       -3.1562  -0.4366  -0.7637
H       -2.9554  -2.2084  -0.9297
H       1.5956  1.0587  -1.3053
H       1.0877  -0.1497  -2.3356
H       -1.8254  0.8562  1.1091
H       -0.9758  -0.0349  2.1777
H       -2.0379  -2.1574  1.3716
H       -3.2987  -0.9493  1.6455
H       0.4457  -2.3260  1.2127
H       1.2463  -0.9215  1.7006
H       3.4842  -0.6380  -1.7623
H       3.2724  -0.1591  -0.0168
H       -0.5860  -2.2355  -0.7891
H       -1.0263  -1.0693  -1.9036
