27

Co      0.0064  0.0660  -0.0091
Cl      -1.0593  1.5805  -1.2044
Cl      1.1326  1.4072  1.3503
C       2.6567  -0.6864  -0.8088
C       2.0852  -1.9176  -0.1121
C       -2.4469  -1.3048  -0.4443
C       -2.4471  -1.1555  1.0789
N       1.5234  0.0516  -1.4445
N       1.0166  -1.5378  0.8669
N       -1.0697  -1.3695  -1.0360
N       -1.5232  -0.0494  1.4878
H       2.8704  -2.4747  0.3710
H       1.6316  -2.5631  -0.8474
H       -2.9115  -0.4358  -0.8823
H       -3.0274  -2.1673  -0.7249
H       1.7522  1.0102  -1.6588
H       1.2421  -0.3789  -2.3198
H       -1.9741  0.8497  1.5021
H       -1.1358  -0.1971  2.4073
H       -2.1056  -2.0602  1.5643
H       -3.4676  -0.9855  1.4094
H       0.4373  -2.3430  1.0650
H       1.4107  -1.2274  1.7417
H       3.4049  -0.9906  -1.5327
H       3.1204  -0.0226  -0.0967
H       -0.7091  -2.3016  -1.0045
H       -1.1265  -1.0986  -1.9977
