27

Co      0.0993  0.0204  0.0393
Cl      -1.0705  1.5853  -1.2231
Cl      1.0370  1.2650  1.2307
C       2.5008  -0.6894  -0.7397
C       2.0068  -1.7970  -0.0673
C       -2.3894  -1.2869  -0.4240
C       -2.4138  -1.1072  1.0768
N       1.4358  0.0729  -1.2890
N       1.0676  -1.4022  0.7715
N       -1.0388  -1.2730  -1.0525
N       -1.4802  -0.0273  1.4570
H       2.8228  -2.3218  0.3825
H       1.5764  -2.4611  -0.8037
H       -2.9061  -0.4536  -0.8426
H       -2.9257  -2.1784  -0.6902
H       1.7100  1.0154  -1.5164
H       1.1135  -0.3455  -2.1575
H       -1.8961  0.8825  1.3754
H       -1.1729  -0.1183  2.4012
H       -2.1342  -2.0050  1.6327
H       -3.4553  -0.8725  1.3446
H       0.4645  -2.1764  0.9957
H       1.4559  -1.0659  1.6368
H       3.0832  -1.1448  -1.5416
H       3.1563  -0.0642  -0.1584
H       -0.7064  -2.2047  -1.1800
H       -1.1537  -0.8541  -1.9652
