27

Co      0.1045  0.0644  0.0177
Cl      -1.1202  1.6857  -1.2689
Cl      1.1004  1.3679  1.3035
C       2.5784  -0.6784  -0.8201
C       2.1232  -1.9800  -0.0668
C       -2.4649  -1.3341  -0.4675
C       -2.4346  -1.1392  1.0878
N       1.3728  0.0833  -1.2458
N       1.0339  -1.5545  0.8681
N       -1.0915  -1.4601  -1.1039
N       -1.4693  -0.0455  1.4701
H       3.0927  -2.4563  0.2198
H       1.5758  -2.6552  -0.7108
H       -2.7778  -0.4282  -1.0211
H       -3.2647  -2.1386  -0.5282
H       1.7307  1.0068  -1.6175
H       1.2743  -0.4107  -2.1609
H       -2.0195  0.8112  1.5078
H       -1.2461  -0.1971  2.4581
H       -2.0629  -1.9911  1.6518
H       -3.5023  -1.0197  1.3427
H       0.4979  -2.3724  1.1241
H       1.6514  -1.4516  1.7368
H       3.3835  -1.0610  -1.4703
H       2.9908  0.0725  -0.1421
H       -0.9749  -2.4833  -1.1537
H       -1.2716  -1.2583  -2.0898
