27

Co      0.0179  -0.0386  -0.0683
Cl      -1.1202  1.6463  -1.2098
Cl      1.2590  1.6007  1.4774
C       2.7789  -0.7168  -0.8290
C       2.2674  -2.1516  -0.0635
C       -2.7224  -1.3576  -0.4732
C       -2.5017  -1.2845  1.0961
N       1.3924  0.1144  -1.2595
N       1.0710  -1.5050  0.8298
N       -1.2408  -1.2910  -0.9047
N       -1.4864  -0.0643  1.1679
H       2.9365  -2.7733  0.5578
H       1.7958  -2.7824  -0.8187
H       -3.1501  -0.3916  -0.7827
H       -3.2621  -2.1841  -0.9783
H       1.5726  1.1190  -1.2511
H       1.1461  -0.1036  -2.2043
H       -1.9854  0.7951  0.9399
H       -1.1227  0.0853  2.1152
H       -2.0458  -2.1572  1.5440
H       -3.3913  -1.0325  1.6781
H       0.4670  -2.1877  1.2916
H       1.5118  -0.9657  1.5698
H       3.3586  -0.8117  -1.7614
H       3.3159  -0.0454  -0.1621
H       -0.8122  -2.2091  -0.7698
H       -1.2064  -1.0991  -1.9048
