27

Co      -0.0775  -0.0436  -0.0423
Cl      -1.0989  1.6578  -1.2424
Cl      1.2084  1.5246  1.4182
C       2.6616  -0.7203  -0.7523
C       2.2014  -2.0520  -0.0321
C       -2.5797  -1.3992  -0.4776
C       -2.4630  -1.1792  1.0690
N       1.4070  0.1195  -1.3176
N       1.1488  -1.5978  0.8531
N       -1.1223  -1.1475  -0.8856
N       -1.3305  -0.0875  1.2148
H       2.9593  -2.7030  0.4213
H       1.7256  -2.6279  -0.8351
H       -3.1528  -0.5710  -0.8785
H       -2.9628  -2.3422  -0.8999
H       1.6281  1.1088  -1.2777
H       1.2594  -0.0962  -2.2941
H       -1.7477  0.8409  1.2798
H       -0.8226  -0.1975  2.0923
H       -2.1954  -2.0687  1.6516
H       -3.3834  -0.7546  1.5148
H       0.6706  -2.3575  1.3129
H       1.5718  -1.0284  1.5931
H       3.2010  -1.0375  -1.6400
H       3.2919  -0.0433  -0.1860
H       -0.5809  -2.0139  -0.7659
H       -1.1033  -0.9223  -1.8669
