27

Co      -0.0350  -0.0464  0.0200
Cl      -1.1072  1.6539  -1.2511
Cl      1.1844  1.4964  1.3982
C       2.7673  -0.7160  -0.8116
C       2.1455  -1.9563  -0.0433
C       -2.5609  -1.3923  -0.4714
C       -2.5057  -1.1998  1.0924
N       1.5538  0.1060  -1.4831
N       1.0486  -1.5163  0.8162
N       -1.1254  -1.2106  -0.9361
N       -1.4508  -0.0617  1.3440
H       2.8165  -2.6966  0.4416
H       1.6360  -2.4722  -0.8835
H       -3.0777  -0.5210  -0.8502
H       -3.0200  -2.2875  -0.9029
H       1.7464  1.0899  -1.5345
H       1.3898  -0.2134  -2.4234
H       -1.8796  0.8487  1.3342
H       -1.0282  -0.1504  2.2571
H       -2.2156  -2.0776  1.6809
H       -3.4712  -0.8554  1.4712
H       0.4692  -2.2896  1.0875
H       1.4193  -1.1109  1.6630
H       3.3231  -1.1912  -1.6322
H       3.4166  -0.0108  -0.2865
H       -0.6511  -2.1040  -0.9541
H       -1.1161  -0.8588  -1.8738
