27

Co      -0.0960  0.0059  -0.0053
Cl      -1.0708  1.5943  -1.2038
Cl      1.1719  1.4518  1.3723
C       2.6951  -0.7180  -0.8274
C       2.1525  -1.9389  -0.1020
C       -2.5148  -1.3061  -0.4583
C       -2.3851  -1.1375  1.0386
N       1.5493  0.0765  -1.3710
N       1.1006  -1.5587  0.9003
N       -1.1187  -1.2614  -0.9815
N       -1.4189  -0.0423  1.3068
H       2.9590  -2.4818  0.3734
H       1.6924  -2.6137  -0.8090
H       -3.0759  -0.5036  -0.9137
H       -2.9831  -2.2449  -0.7146
H       1.7752  1.0581  -1.3693
H       1.3385  -0.1666  -2.3213
H       -1.8713  0.8604  1.3188
H       -0.9862  -0.1394  2.2091
H       -1.9806  -2.0413  1.4772
H       -3.3320  -0.9415  1.5155
H       0.6686  -2.3902  1.2652
H       1.5361  -1.0903  1.6786
H       3.3648  -1.0359  -1.6147
H       3.2436  -0.0845  -0.1547
H       -0.6946  -2.1725  -0.8999
H       -1.1273  -1.0127  -1.9514
