27

Co      0.0711  -0.0190  0.0496
Cl      -1.1104  1.6602  -1.2476
Cl      1.0717  1.3147  1.2733
C       2.5052  -0.6660  -0.7085
C       1.9843  -1.7976  -0.0956
C       -2.4406  -1.2713  -0.4455
C       -2.3611  -1.1262  1.0416
N       1.4556  0.0599  -1.3574
N       1.1255  -1.4713  0.8679
N       -1.0674  -1.3117  -1.0015
N       -1.4308  -0.0309  1.3452
H       2.8164  -2.4333  0.2244
H       1.4646  -2.3629  -0.8785
H       -2.9196  -0.4046  -0.8519
H       -3.0054  -2.1405  -0.7292
H       1.6971  1.0143  -1.5770
H       1.1883  -0.3808  -2.2313
H       -1.8661  0.8703  1.2327
H       -1.1143  -0.0676  2.2887
H       -1.9978  -2.0285  1.5219
H       -3.3521  -0.9323  1.4327
H       0.6060  -2.2757  1.1507
H       1.5637  -1.1015  1.6895
H       3.1706  -1.1132  -1.4480
H       3.0838  -0.0250  -0.0814
H       -0.7433  -2.2510  -1.0029
H       -1.1022  -0.9932  -1.9476
