27

Co      0.0437  0.0335  0.0991
Cl      -1.0966  1.6170  -1.2488
Cl      1.0774  1.3345  1.2555
C       2.7259  -0.7323  -0.9023
C       2.1431  -1.8734  -0.0669
C       -2.5104  -1.3378  -0.4480
C       -2.4393  -1.1265  1.0560
N       1.5707  0.0901  -1.3282
N       0.9718  -1.4377  0.7842
N       -1.1286  -1.3156  -1.0331
N       -1.4600  -0.0530  1.4008
H       2.8836  -2.3381  0.5651
H       1.7614  -2.6342  -0.7419
H       -3.0650  -0.5499  -0.9190
H       -3.0033  -2.2789  -0.6610
H       1.8064  1.0539  -1.4348
H       1.2108  -0.2116  -2.2195
H       -1.8809  0.8527  1.3240
H       -1.1594  -0.1371  2.3531
H       -2.1131  -2.0340  1.5537
H       -3.4191  -0.8868  1.4447
H       0.3290  -2.2426  0.8863
H       1.3213  -1.2039  1.7271
H       3.2632  -1.1569  -1.7609
H       3.4216  -0.1113  -0.3344
H       -0.7822  -2.2472  -1.1602
H       -1.1814  -0.8802  -1.9418
