27

Co      -0.0993  -0.0247  -0.0350
Cl      -1.1062  1.6386  -1.2079
Cl      1.2773  1.6137  1.4903
C       2.7417  -0.7732  -0.8076
C       2.2213  -1.9727  -0.1391
C       -2.6525  -1.3147  -0.4359
C       -2.4111  -1.2031  1.0174
N       1.6099  0.0393  -1.3726
N       1.1750  -1.6076  0.8814
N       -1.2694  -1.3851  -0.9914
N       -1.4975  -0.0590  1.2293
H       2.8975  -2.4922  0.5679
H       1.9112  -2.6966  -0.8968
H       -3.2795  -0.4779  -0.7411
H       -3.0479  -2.2436  -0.8815
H       1.7448  1.0567  -1.1998
H       1.1263  -0.0745  -2.2707
H       -1.8648  0.8650  1.0848
H       -0.9719  -0.0431  2.1023
H       -1.9782  -2.1501  1.3329
H       -3.2739  -0.9781  1.6556
H       0.6493  -2.4001  1.1774
H       1.3828  -0.9404  1.6754
H       3.2633  -0.8992  -1.7759
H       3.4089  -0.2573  -0.1131
H       -0.7036  -2.2487  -0.8233
H       -1.1747  -1.1005  -1.9537
