27

Co      0.0387  0.0612  -0.0224
Cl      -1.0857  1.6030  -1.2129
Cl      1.1545  1.4235  1.3552
C       2.6196  -0.7173  -0.8012
C       2.1610  -1.9816  -0.0940
C       -2.5180  -1.3257  -0.4457
C       -2.4231  -1.1419  1.0716
N       1.4425  0.0797  -1.2478
N       1.1297  -1.5344  0.8838
N       -1.1853  -1.4531  -1.1706
N       -1.5252  -0.0077  1.4529
H       2.9931  -2.4684  0.3929
H       1.7124  -2.6841  -0.7763
H       -2.9931  -0.4543  -0.8676
H       -3.1611  -2.1776  -0.6490
H       1.7123  1.0378  -1.4013
H       1.0997  -0.2543  -2.1331
H       -1.9851  0.8845  1.4298
H       -1.1521  -0.1247  2.3810
H       -2.0403  -2.0295  1.5464
H       -3.4336  -0.9946  1.4362
H       0.5642  -2.3051  1.1869
H       1.5606  -1.1318  1.6937
H       3.2657  -0.9306  -1.6383
H       3.1685  -0.0988  -0.1077
H       -0.8772  -2.4057  -1.2299
H       -1.3125  -1.1137  -2.1110
