27

Co      0.0695  -0.0110  0.0372
Cl      -1.1276  1.6602  -1.2415
Cl      1.0949  1.3499  1.2867
C       2.6446  -0.6786  -0.8825
C       2.1054  -1.9055  -0.0482
C       -2.4900  -1.2534  -0.4619
C       -2.3817  -1.1667  1.0874
N       1.4946  0.1550  -1.3305
N       1.0384  -1.5300  0.9405
N       -1.1052  -1.3695  -1.0584
N       -1.5237  0.0272  1.3838
H       3.0633  -2.4362  0.1958
H       1.4990  -2.5561  -0.6856
H       -2.7879  -0.3074  -0.9505
H       -3.2862  -2.0364  -0.5947
H       1.8345  1.1004  -1.4986
H       1.4791  -0.1877  -2.3146
H       -2.1308  0.8381  1.2352
H       -1.3624  0.0640  2.3987
H       -1.8326  -1.9935  1.5573
H       -3.4219  -1.1892  1.4656
H       0.5807  -2.3880  1.2279
H       1.6607  -1.3823  1.7842
H       3.3947  -1.2132  -1.5301
H       3.1505  0.0629  -0.2737
H       -1.0006  -2.4019  -1.1251
H       -1.2342  -1.1278  -2.0339
