27

Co      -0.0711  0.0249  -0.0504
Cl      -1.0869  1.5945  -1.1886
Cl      1.2580  1.5742  1.4683
C       2.7630  -0.7915  -0.7977
C       2.2386  -1.9926  -0.1519
C       -2.6271  -1.3046  -0.4194
C       -2.4587  -1.2252  1.0475
N       1.6003  0.0009  -1.3247
N       1.1685  -1.5282  0.7901
N       -1.2511  -1.3876  -1.0065
N       -1.5881  -0.0555  1.3206
H       2.8783  -2.4886  0.6336
H       1.9614  -2.7384  -0.9042
H       -3.2249  -0.4397  -0.7010
H       -3.0505  -2.2044  -0.8991
H       1.7527  1.0064  -1.2471
H       1.0721  -0.1779  -2.1918
H       -1.9719  0.8567  1.1607
H       -1.0870  -0.0425  2.2045
H       -2.0377  -2.1676  1.3821
H       -3.3616  -1.0312  1.6137
H       0.5797  -2.2751  1.0995
H       1.3725  -0.8586  1.5816
H       3.2838  -0.8640  -1.7821
H       3.4147  -0.2810  -0.0823
H       -0.6923  -2.2537  -0.8617
H       -1.1954  -1.0950  -1.9661
