27

Co      -0.0028  -0.0394  -0.0079
Cl      -1.1282  1.6869  -1.2400
Cl      1.1919  1.4854  1.4031
C       2.6557  -0.6944  -0.7716
C       2.1269  -1.9610  -0.1360
C       -2.5532  -1.2847  -0.4551
C       -2.3820  -1.1742  1.0470
N       1.4673  0.0346  -1.2985
N       1.1348  -1.5039  0.8891
N       -1.1621  -1.3890  -1.0206
N       -1.4686  -0.0343  1.2849
H       2.9144  -2.5625  0.3085
H       1.6152  -2.5777  -0.8707
H       -3.0037  -0.3861  -0.8531
H       -3.1564  -2.1343  -0.7449
H       1.6646  1.0179  -1.4071
H       1.2063  -0.2995  -2.2045
H       -1.9374  0.8465  1.1285
H       -1.1291  0.0004  2.2319
H       -1.9229  -2.0709  1.4478
H       -3.3279  -1.0393  1.5484
H       0.6593  -2.2827  1.3118
H       1.6172  -1.0188  1.6301
H       3.3763  -0.8939  -1.5531
H       3.1245  -0.0612  -0.0314
H       -0.8398  -2.3414  -0.9530
H       -1.1793  -1.1430  -1.9933
