27

Co      -0.0282  -0.0315  0.0105
Cl      -1.1542  1.7071  -1.2647
Cl      1.2218  1.5266  1.4237
C       2.8158  -0.7116  -0.8480
C       2.2144  -2.0382  -0.1683
C       -2.6710  -1.3409  -0.4369
C       -2.4537  -1.1922  1.0374
N       1.5900  0.0536  -1.3844
N       1.1504  -1.5535  1.0214
N       -1.2542  -1.3442  -0.9950
N       -1.4820  -0.0891  1.2382
H       2.8244  -2.6609  0.5209
H       1.7668  -2.6947  -0.9134
H       -3.3450  -0.5446  -0.7740
H       -2.9975  -2.3146  -0.8638
H       1.6407  1.0854  -1.2592
H       1.0409  -0.1121  -2.2512
H       -1.8201  0.8500  1.0158
H       -1.0200  -0.0265  2.1404
H       -2.0674  -2.1583  1.3581
H       -3.3050  -0.9125  1.6777
H       0.5853  -2.3011  1.3732
H       1.4544  -0.8983  1.7682
H       3.4474  -0.6507  -1.8027
H       3.3385  -0.2016  -0.0310
H       -0.7125  -2.2138  -0.9730
H       -1.1700  -0.9109  -1.9054
