27

Co      -0.0446  -0.0022  -0.0831
Cl      -1.0367  1.5283  -1.1541
Cl      1.1986  1.4943  1.4155
C       2.7285  -0.6690  -0.7984
C       2.1915  -2.1148  -0.0671
C       -2.5791  -1.3406  -0.4829
C       -2.4507  -1.2036  1.0967
N       1.3521  0.1210  -1.2959
N       1.0384  -1.4540  0.8510
N       -1.1164  -1.1873  -0.9391
N       -1.4142  -0.0322  1.2597
H       2.8489  -2.7840  0.5139
H       1.6775  -2.7014  -0.8370
H       -3.0763  -0.4389  -0.8333
H       -3.0486  -2.2154  -0.9411
H       1.5126  1.1199  -1.3304
H       1.1297  -0.1563  -2.2361
H       -1.8855  0.8592  1.1949
H       -0.9666  -0.0241  2.1628
H       -2.0706  -2.0823  1.6008
H       -3.3762  -0.9122  1.5865
H       0.4761  -2.1285  1.3881
H       1.5112  -0.8588  1.5434
H       3.3648  -0.7505  -1.6917
H       3.2022  0.0101  -0.0973
H       -0.6335  -2.0779  -0.8372
H       -1.1144  -0.9523  -1.9193
