27

Co      -0.0052  0.0131  -0.0051
Cl      -1.1144  1.6374  -1.2350
Cl      1.1975  1.5084  1.3916
C       2.8167  -0.7613  -0.9159
C       2.2788  -2.0481  -0.1190
C       -2.6199  -1.3251  -0.4154
C       -2.4908  -1.1994  1.0727
N       1.5754  0.0823  -1.3002
N       1.0400  -1.5368  0.8725
N       -1.2151  -1.3579  -1.0093
N       -1.5524  -0.0751  1.3448
H       2.8885  -2.4549  0.7840
H       2.0203  -2.8926  -0.7914
H       -3.2581  -0.5097  -0.7437
H       -2.9808  -2.2738  -0.8668
H       1.6799  1.1022  -1.1304
H       0.9609  0.0018  -2.1774
H       -1.8973  0.8517  1.1218
H       -1.1101  -0.0300  2.2529
H       -2.1356  -2.1557  1.4322
H       -3.3872  -0.9314  1.6210
H       0.3546  -2.2753  1.0608
H       1.2259  -0.9834  1.7365
H       3.3023  -0.7400  -1.9698
H       3.4792  -0.2669  -0.1919
H       -0.6755  -2.2253  -1.0084
H       -1.1743  -0.9240  -1.9230
