27

Co      -0.0006  0.0183  -0.0262
Cl      -1.1046  1.6121  -1.2004
Cl      1.2433  1.5654  1.4565
C       2.8676  -0.7303  -0.8639
C       2.2628  -2.1138  -0.0772
C       -2.7034  -1.3673  -0.4858
C       -2.5048  -1.2780  1.0943
N       1.5011  0.0925  -1.3574
N       1.0471  -1.4826  0.8127
N       -1.2589  -1.3781  -0.9922
N       -1.5506  -0.0272  1.2950
H       2.8859  -2.7968  0.5501
H       1.7665  -2.7002  -0.8572
H       -3.1022  -0.3858  -0.8010
H       -3.3170  -2.1643  -0.9406
H       1.6844  1.0852  -1.4465
H       1.2327  -0.2190  -2.2676
H       -2.0673  0.8264  1.1444
H       -1.1817  0.0308  2.2386
H       -2.0264  -2.1424  1.5411
H       -3.4292  -1.0991  1.6295
H       0.3972  -2.1818  1.1646
H       1.4626  -1.0409  1.6127
H       3.4603  -0.9131  -1.7571
H       3.4150  -0.0430  -0.2171
H       -0.8589  -2.3083  -0.9062
H       -1.2369  -1.1394  -1.9735
