27

Co      -0.0437  -0.0437  -0.0940
Cl      -1.0597  1.5761  -1.1771
Cl      1.2216  1.5338  1.4450
C       2.5801  -0.6940  -0.7807
C       2.1316  -1.9761  -0.0928
C       -2.5189  -1.3031  -0.4358
C       -2.4062  -1.1427  1.0700
N       1.4158  0.1000  -1.2788
N       1.1161  -1.5514  0.9125
N       -1.1428  -1.2786  -1.0442
N       -1.4476  -0.0377  1.2969
H       2.9836  -2.4634  0.3733
H       1.6815  -2.6797  -0.7749
H       -3.0658  -0.4733  -0.8576
H       -3.0243  -2.2152  -0.7089
H       1.6486  1.0862  -1.2379
H       1.2064  -0.0982  -2.2435
H       -1.8897  0.8634  1.2271
H       -1.0285  -0.0658  2.2077
H       -2.0245  -2.0341  1.5379
H       -3.3712  -0.9299  1.5025
H       0.6856  -2.3391  1.3794
H       1.5707  -0.9834  1.6287
H       3.2651  -0.8918  -1.5908
H       3.0829  -0.0684  -0.0630
H       -0.7543  -2.2043  -1.0350
H       -1.2311  -0.9942  -2.0051
