27

Co      0.0387  0.0584  -0.0276
Cl      -1.0597  1.5827  -1.1882
Cl      1.1247  1.3859  1.3347
C       2.4371  -0.7047  -0.7492
C       2.0370  -1.8151  -0.1420
C       -2.4005  -1.2229  -0.4142
C       -2.3199  -1.0888  1.0257
N       1.4483  0.0186  -1.2394
N       1.1207  -1.5531  0.8654
N       -1.1091  -1.5025  -1.1521
N       -1.5086  -0.0177  1.4450
H       3.0156  -2.1374  0.2783
H       1.6767  -2.6254  -0.7653
H       -2.8656  -0.3839  -0.8900
H       -3.0815  -2.0824  -0.5060
H       1.7623  0.9591  -1.4409
H       1.0988  -0.3523  -2.1104
H       -1.9635  0.8724  1.3936
H       -1.1759  -0.1280  2.3793
H       -1.8943  -2.0038  1.4102
H       -3.3484  -1.0520  1.3927
H       0.6509  -2.4094  1.1039
H       1.5370  -1.2032  1.7065
H       3.1900  -0.9854  -1.4715
H       2.9341  -0.1231  0.0072
H       -0.8765  -2.4789  -1.1161
H       -1.2422  -1.2710  -2.1267
