27

Co      -0.1072  -0.1140  -0.0204
Cl      -1.0758  1.5823  -1.1815
Cl      1.2332  1.5465  1.4396
C       2.7243  -0.7250  -0.8476
C       2.1504  -1.9090  -0.1013
C       -2.5900  -1.2975  -0.4473
C       -2.3795  -1.1490  1.0385
N       1.5554  0.0856  -1.3119
N       1.0852  -1.4355  0.8464
N       -1.1876  -1.1783  -0.9666
N       -1.4121  -0.0342  1.1603
H       2.9111  -2.4531  0.4476
H       1.6895  -2.6078  -0.7887
H       -3.2030  -0.5132  -0.8718
H       -3.0005  -2.2676  -0.7237
H       1.7457  1.0932  -1.1537
H       1.3890  -0.0288  -2.3117
H       -1.8599  0.8561  0.9841
H       -1.0440  0.0500  2.0933
H       -1.9196  -2.0389  1.4543
H       -3.2830  -0.9463  1.6018
H       0.7007  -2.2411  1.3432
H       1.5399  -0.8405  1.5509
H       3.3324  -1.0539  -1.6798
H       3.3309  -0.1088  -0.2031
H       -0.7768  -2.0990  -0.9935
H       -1.2042  -0.8299  -1.9068
