27

Co      0.0686  0.0437  0.0473
Cl      -1.1171  1.6416  -1.2477
Cl      1.0928  1.3479  1.2823
C       2.6987  -0.7210  -0.8457
C       2.1379  -1.9188  -0.0924
C       -2.5330  -1.2996  -0.4313
C       -2.4715  -1.1925  1.0757
N       1.5468  0.0699  -1.3457
N       1.0481  -1.4803  0.8360
N       -1.1171  -1.2944  -0.9474
N       -1.5353  -0.0717  1.3709
H       2.9077  -2.4335  0.4509
H       1.7059  -2.6213  -0.7930
H       -3.0239  -0.4408  -0.8478
H       -3.0481  -2.1894  -0.7579
H       1.7888  1.0337  -1.4898
H       1.2220  -0.2725  -2.2331
H       -1.9983  0.8073  1.2136
H       -1.2470  -0.0670  2.3334
H       -2.0858  -2.1000  1.5263
H       -3.4503  -1.0123  1.4971
H       0.4413  -2.2698  1.0380
H       1.4469  -1.1764  1.7140
H       3.3337  -1.0559  -1.6549
H       3.2832  -0.0928  -0.1954
H       -0.7612  -2.2270  -0.9469
H       -1.1413  -0.9826  -1.8994
