27

Co      -0.0409  0.0197  -0.0918
Cl      -1.0869  1.5830  -1.1877
Cl      1.2475  1.5458  1.4640
C       2.7117  -0.7523  -0.7794
C       2.2034  -2.0206  -0.1301
C       -2.6240  -1.3373  -0.4181
C       -2.5186  -1.2238  1.0860
N       1.5336  0.0299  -1.3033
N       1.2119  -1.5150  0.8688
N       -1.2262  -1.2457  -0.9866
N       -1.5809  -0.0846  1.3029
H       3.0132  -2.5706  0.3504
H       1.7239  -2.6823  -0.8318
H       -3.1895  -0.5019  -0.8176
H       -3.0863  -2.2571  -0.7478
H       1.7956  1.0082  -1.3441
H       1.3266  -0.2333  -2.2445
H       -2.0604  0.7946  1.2084
H       -1.1819  -0.0914  2.2292
H       -2.1080  -2.1171  1.5347
H       -3.4837  -1.0398  1.5340
H       0.7774  -2.2818  1.3928
H       1.6981  -0.9131  1.5478
H       3.4335  -0.9354  -1.5675
H       3.1864  -0.1292  -0.0285
H       -0.8022  -2.1653  -0.9560
H       -1.3082  -0.9866  -1.9560
