27

Co      -0.0010  0.0171  0.0085
Cl      -1.1090  1.6807  -1.2635
Cl      1.1215  1.3962  1.3280
C       2.5268  -0.7223  -0.8188
C       2.0722  -1.8185  -0.1133
C       -2.3760  -1.2670  -0.4166
C       -2.3998  -1.0959  1.0582
N       1.5338  0.0208  -1.3040
N       1.0760  -1.5967  0.8548
N       -1.0330  -1.3620  -1.0350
N       -1.4871  -0.0820  1.4524
H       3.1741  -2.1454  0.1253
H       1.6101  -2.6049  -0.6888
H       -2.7955  -0.4736  -1.0514
H       -3.0649  -2.1666  -0.3791
H       1.9374  0.9431  -1.5403
H       1.5357  -0.3682  -2.2776
H       -2.0169  0.7828  1.5051
H       -1.2573  -0.2528  2.4334
H       -2.0165  -1.9723  1.5689
H       -3.4835  -1.0375  1.2961
H       0.7422  -2.5433  1.1158
H       1.6762  -1.4529  1.7132
H       3.4034  -1.2725  -1.3520
H       2.9524  -0.0153  -0.1239
H       -0.9019  -2.3815  -1.0599
H       -1.2238  -1.1937  -2.0284
