27

Co      -0.0781  -0.1066  -0.0460
Cl      -1.0795  1.5860  -1.1852
Cl      1.2369  1.5466  1.4469
C       2.7097  -0.7286  -0.8405
C       2.1576  -1.9271  -0.1012
C       -2.5425  -1.2902  -0.4327
C       -2.4014  -1.1453  1.0750
N       1.5376  0.0896  -1.2871
N       1.1072  -1.4361  0.8508
N       -1.1877  -1.2663  -1.0912
N       -1.5073  0.0098  1.3032
H       2.9295  -2.4605  0.4397
H       1.6891  -2.6219  -0.7814
H       -3.1005  -0.4584  -0.8316
H       -3.0591  -2.2018  -0.6943
H       1.7425  1.0898  -1.1616
H       1.3459  -0.0431  -2.2760
H       -1.9624  0.8927  1.1273
H       -1.1500  0.0645  2.2434
H       -1.9487  -2.0169  1.5237
H       -3.3671  -1.0013  1.5286
H       0.6900  -2.2238  1.3397
H       1.5582  -0.8415  1.5555
H       3.3180  -1.0252  -1.6796
H       3.3090  -0.1160  -0.1851
H       -0.8317  -2.2089  -1.2205
H       -1.2847  -0.8447  -2.0057
