27

Co      -0.0800  0.0038  -0.0499
Cl      -1.0671  1.5897  -1.1886
Cl      1.1787  1.4827  1.3816
C       2.6475  -0.7417  -0.8376
C       2.2019  -1.9816  -0.0728
C       -2.5337  -1.2621  -0.4402
C       -2.3993  -1.1923  1.0488
N       1.4872  0.0976  -1.2933
N       1.0583  -1.6088  0.8319
N       -1.0791  -1.1964  -0.8214
N       -1.4226  -0.0799  1.2075
H       3.0481  -2.3639  0.5081
H       1.8771  -2.7901  -0.7344
H       -3.0503  -0.4200  -0.8634
H       -2.9719  -2.1832  -0.8191
H       1.7448  1.0829  -1.1967
H       1.2798  -0.0359  -2.2774
H       -1.9001  0.7992  1.1244
H       -1.0083  -0.0625  2.1187
H       -1.9621  -2.1019  1.4489
H       -3.3172  -0.9922  1.5900
H       0.6051  -2.4393  1.1714
H       1.4397  -1.1413  1.6430
H       3.2551  -1.0226  -1.6842
H       3.2403  -0.1187  -0.1891
H       -0.6148  -2.0924  -0.5585
H       -1.0303  -1.1191  -1.8552
