27

Co      -0.0235  -0.0315  -0.0106
Cl      -1.1239  1.6510  -1.2249
Cl      1.2521  1.5734  1.4681
C       2.8109  -0.6908  -0.8773
C       2.1885  -2.0331  -0.1457
C       -2.7037  -1.3686  -0.4620
C       -2.4629  -1.1945  1.0440
N       1.5558  0.0649  -1.3807
N       1.0860  -1.5095  0.9916
N       -1.2827  -1.3333  -1.0139
N       -1.4592  -0.0915  1.1989
H       2.9229  -2.6585  0.3644
H       1.6250  -2.6643  -0.8367
H       -3.2805  -0.5633  -0.9124
H       -3.1710  -2.3173  -0.7001
H       1.7106  1.0694  -1.3970
H       1.2972  -0.1993  -2.3063
H       -1.9130  0.8001  1.0398
H       -1.1106  -0.0422  2.1464
H       -2.0150  -2.1039  1.4281
H       -3.3524  -0.9874  1.6349
H       0.6113  -2.2885  1.4251
H       1.5986  -1.0221  1.7157
H       3.5930  -0.8000  -1.6522
H       3.2103  -0.0533  -0.0735
H       -0.9204  -2.2757  -1.0446
H       -1.2986  -0.9927  -1.9560
