27

Co      -0.0843  -0.0326  -0.0529
Cl      -1.1065  1.6571  -1.2346
Cl      1.2108  1.5149  1.4294
C       2.7246  -0.7280  -0.7724
C       2.1649  -1.9882  -0.1454
C       -2.5423  -1.3052  -0.4211
C       -2.4999  -1.2167  1.0773
N       1.5470  -0.0050  -1.3749
N       1.1282  -1.5184  0.8318
N       -1.0722  -1.1208  -0.7885
N       -1.4829  -0.1425  1.2458
H       2.9358  -2.5682  0.3580
H       1.7059  -2.6303  -0.8838
H       -3.1113  -0.4923  -0.8520
H       -2.8977  -2.2627  -0.8351
H       1.7480  0.9856  -1.4029
H       1.3941  -0.2875  -2.3283
H       -1.9294  0.7558  1.1502
H       -1.0802  -0.1326  2.1695
H       -2.1476  -2.1377  1.5330
H       -3.4401  -0.9516  1.5378
H       0.7220  -2.3124  1.3326
H       1.6021  -0.9476  1.5367
H       3.4921  -0.9423  -1.5129
H       3.1505  -0.0842  -0.0122
H       -0.5826  -2.0125  -0.6244
H       -1.0472  -0.9553  -1.7880
