27

Co      0.0123  0.0904  0.0059
Cl      -1.0162  1.5041  -1.1600
Cl      1.0863  1.3398  1.2847
C       2.4618  -0.7172  -0.8057
C       2.0377  -1.7710  -0.1065
C       -2.4223  -1.2531  -0.4181
C       -2.3362  -1.0734  1.0025
N       1.4972  0.0495  -1.2795
N       1.0336  -1.5379  0.8228
N       -1.0877  -1.3432  -1.0277
N       -1.4192  -0.0727  1.3557
H       3.0036  -2.0222  0.4007
H       1.7526  -2.6623  -0.7015
H       -3.0091  -0.5206  -0.9499
H       -2.9214  -2.2225  -0.5037
H       1.8257  0.9890  -1.4161
H       1.1545  -0.2628  -2.1704
H       -1.8473  0.8370  1.3640
H       -1.0631  -0.2186  2.2726
H       -1.9725  -2.0095  1.4079
H       -3.3238  -0.9225  1.4142
H       0.5456  -2.4220  0.9670
H       1.3963  -1.2539  1.7292
H       3.1461  -1.1112  -1.5507
H       3.0503  -0.1369  -0.1241
H       -0.7628  -2.2791  -0.9643
H       -1.1732  -1.1172  -2.0053
