27

Co      -0.0159  -0.0984  0.0014
Cl      -1.1229  1.6943  -1.2667
Cl      1.2000  1.5249  1.4129
C       2.6868  -0.7209  -0.8143
C       2.1496  -1.9444  -0.1128
C       -2.5324  -1.3476  -0.4294
C       -2.4697  -1.1463  1.0712
N       1.4786  0.0246  -1.2644
N       1.0348  -1.4313  0.7637
N       -1.1168  -1.2285  -0.9492
N       -1.4161  -0.1159  1.2744
H       2.8929  -2.4456  0.4997
H       1.7457  -2.6637  -0.8122
H       -3.1213  -0.5712  -0.8935
H       -2.9439  -2.3186  -0.7119
H       1.6602  1.0169  -1.2780
H       1.2302  -0.2208  -2.2031
H       -1.8009  0.8079  1.1370
H       -1.0790  -0.1142  2.2222
H       -2.1942  -2.0602  1.5927
H       -3.4202  -0.8110  1.4721
H       0.5284  -2.2034  1.1504
H       1.4601  -0.9499  1.5423
H       3.3252  -0.9680  -1.6446
H       3.2365  -0.0949  -0.1357
H       -0.7231  -2.1502  -1.0294
H       -1.1702  -0.8495  -1.8775
