27

Co      0.0101  0.0414  0.0316
Cl      -1.0695  1.5763  -1.1862
Cl      1.1300  1.3792  1.3166
C       2.6543  -0.6996  -0.8397
C       2.1459  -1.9527  -0.0855
C       -2.5223  -1.2891  -0.4999
C       -2.3143  -1.1207  1.0373
N       1.3997  0.0656  -1.1538
N       1.0519  -1.3960  0.7834
N       -1.1694  -1.4496  -1.1483
N       -1.4232  0.0400  1.3389
H       3.0428  -2.4615  0.2847
H       1.5866  -2.6361  -0.7185
H       -2.8528  -0.3813  -1.0218
H       -3.3436  -2.0932  -0.5143
H       1.7372  1.0044  -1.4509
H       1.3109  -0.3622  -2.0900
H       -2.0228  0.8693  1.3135
H       -1.2050  -0.0150  2.3267
H       -1.7677  -1.9523  1.4971
H       -3.3216  -1.1166  1.4666
H       0.5896  -2.1854  1.2167
H       1.7142  -1.1479  1.5527
H       3.3842  -1.0788  -1.5534
H       3.1349  0.0262  -0.1859
H       -1.0640  -2.4810  -1.1691
H       -1.3145  -1.2551  -2.1375
