27

Co      0.0208  0.0140  -0.0067
Cl      -1.1053  1.6771  -1.2598
Cl      1.1178  1.3889  1.3206
C       2.5946  -0.6986  -0.8502
C       2.1288  -1.9380  -0.1496
C       -2.3857  -1.2597  -0.4181
C       -2.4157  -1.0996  1.0783
N       1.4280  -0.0138  -1.1615
N       0.9992  -1.4696  0.8033
N       -1.0053  -1.3438  -1.0166
N       -1.4705  -0.1012  1.4303
H       3.1340  -2.2261  0.2725
H       1.6789  -2.7850  -0.6759
H       -2.8017  -0.4673  -1.0593
H       -3.0500  -2.1684  -0.3982
H       1.7593  0.9259  -1.4278
H       1.3435  -0.4080  -2.1125
H       -1.9930  0.7636  1.3897
H       -1.2866  -0.1860  2.4345
H       -2.0413  -1.9884  1.5694
H       -3.4780  -1.0159  1.3442
H       0.6067  -2.3237  1.1985
H       1.6611  -1.2556  1.5918
H       3.5199  -0.9448  -1.4506
H       2.8916  -0.0099  -0.0258
H       -0.8862  -2.3675  -1.0626
H       -1.2016  -1.1573  -2.0052
