27

Co      -0.0235  -0.0371  -0.0056
Cl      -1.0898  1.6292  -1.2243
Cl      1.2277  1.5631  1.4520
C       2.6579  -0.6991  -0.8262
C       2.1139  -1.9214  -0.0965
C       -2.6066  -1.3943  -0.4572
C       -2.4459  -1.1354  1.0317
N       1.5176  0.0762  -1.3962
N       1.0499  -1.5551  0.9037
N       -1.2179  -1.3149  -1.0230
N       -1.3773  -0.1096  1.2466
H       2.9207  -2.4643  0.3823
H       1.6549  -2.5941  -0.8080
H       -3.2231  -0.6418  -0.9487
H       -3.0439  -2.3767  -0.6482
H       1.7304  1.0590  -1.4324
H       1.2833  -0.2036  -2.3247
H       -1.7726  0.8204  1.2359
H       -0.9732  -0.2094  2.1617
H       -2.1414  -2.0496  1.5251
H       -3.3720  -0.8116  1.4960
H       0.5582  -2.3799  1.1857
H       1.4640  -1.1530  1.7270
H       3.3473  -1.0246  -1.5937
H       3.1901  -0.0494  -0.1527
H       -0.8271  -2.2382  -1.0718
H       -1.2656  -0.9664  -1.9609
