27

Co      -0.0521  -0.0511  -0.0656
Cl      -1.0864  1.6285  -1.2132
Cl      1.1875  1.4834  1.3932
C       2.5918  -0.7117  -0.7744
C       2.1717  -2.0021  -0.0955
C       -2.5083  -1.2891  -0.4348
C       -2.3965  -1.1440  1.0623
N       1.3897  0.0766  -1.1895
N       1.1318  -1.5266  0.8593
N       -1.0933  -1.2070  -0.9449
N       -1.3984  -0.0648  1.2379
H       3.0097  -2.4547  0.4248
H       1.7580  -2.7432  -0.7669
H       -3.0692  -0.4767  -0.8663
H       -2.9501  -2.2283  -0.7450
H       1.6161  1.0665  -1.1302
H       1.1646  -0.0912  -2.1599
H       -1.8331  0.8399  1.1434
H       -0.9927  -0.0594  2.1548
H       -2.0291  -2.0489  1.5238
H       -3.3378  -0.8894  1.5276
H       0.7130  -2.3015  1.3777
H       1.5998  -0.9278  1.5557
H       3.2340  -0.8690  -1.6336
H       3.1227  -0.1051  -0.0633
H       -0.6697  -2.1170  -0.8654
H       -1.1368  -0.9724  -1.9228
