27

Co      -0.0019  0.0394  0.0289
Cl      -1.0789  1.5931  -1.2308
Cl      1.0921  1.3464  1.2735
C       2.6945  -0.7340  -0.9090
C       2.1822  -1.9412  -0.0330
C       -2.4691  -1.3301  -0.4495
C       -2.4629  -1.1338  1.0945
N       1.5093  0.1202  -1.2647
N       1.0009  -1.4916  0.8016
N       -1.0638  -1.2026  -0.9883
N       -1.4620  -0.0540  1.4043
H       3.1145  -2.3492  0.3810
H       1.7037  -2.7101  -0.6282
H       -2.9326  -0.5310  -1.0264
H       -3.0521  -2.2528  -0.5458
H       1.8785  1.0597  -1.3989
H       1.4923  -0.1707  -2.2664
H       -2.0078  0.8037  1.4406
H       -1.2153  -0.1770  2.3807
H       -2.0947  -1.9839  1.6755
H       -3.5084  -0.9653  1.3788
H       0.5374  -2.3403  1.1015
H       1.5821  -1.3115  1.6555
H       3.3728  -1.2654  -1.6168
H       3.2645  -0.0063  -0.3381
H       -0.8274  -2.1813  -1.0863
H       -1.2234  -0.9327  -1.9523
