27

Co      0.0101  0.0355  0.0294
Cl      -1.0659  1.5991  -1.2243
Cl      1.0647  1.2974  1.2518
C       2.4324  -0.6940  -0.7654
C       2.0257  -1.7847  -0.1173
C       -2.3896  -1.2733  -0.4189
C       -2.3166  -1.0228  1.0013
N       1.4576  0.0526  -1.2290
N       1.1302  -1.5406  0.9177
N       -1.0671  -1.3047  -1.0745
N       -1.3537  -0.0699  1.3536
H       3.0096  -2.1190  0.2737
H       1.6369  -2.5985  -0.7260
H       -3.0382  -0.5913  -0.9796
H       -2.8403  -2.2876  -0.4509
H       1.7560  1.0005  -1.3372
H       1.1290  -0.2453  -2.1301
H       -1.7390  0.8691  1.3842
H       -0.9867  -0.2456  2.2676
H       -2.0151  -1.9637  1.4508
H       -3.3076  -0.8052  1.3765
H       0.7210  -2.4186  1.1971
H       1.5746  -1.1605  1.7337
H       3.1378  -1.0372  -1.5136
H       2.9942  -0.1309  -0.0533
H       -0.7445  -2.2389  -1.1249
H       -1.1859  -0.9636  -2.0095
