27

Co      -0.0255  0.0013  0.0176
Cl      -1.1224  1.6338  -1.2162
Cl      1.1816  1.4532  1.3766
C       2.7443  -0.7365  -0.7956
C       2.1533  -1.9209  -0.1480
C       -2.6371  -1.2756  -0.4311
C       -2.4072  -1.2142  1.0244
N       1.6363  0.0533  -1.4160
N       1.2018  -1.5293  0.9482
N       -1.2395  -1.3262  -0.9631
N       -1.5417  -0.0374  1.2419
H       2.8017  -2.5572  0.4659
H       1.7307  -2.5519  -0.9333
H       -3.2527  -0.4179  -0.7036
H       -3.0241  -2.1905  -0.9177
H       1.7574  1.0636  -1.3341
H       1.1222  -0.1514  -2.2790
H       -1.9339  0.8685  0.9928
H       -1.0945  0.0561  2.1438
H       -1.9267  -2.1619  1.3100
H       -3.2784  -1.0470  1.6788
H       0.6491  -2.3017  1.2557
H       1.4639  -0.8921  1.7236
H       3.3033  -0.8939  -1.7293
H       3.3884  -0.2250  -0.0840
H       -0.7004  -2.1958  -0.8460
H       -1.1306  -0.9771  -1.9030
