27

Co      0.0255  -0.0103  -0.0131
Cl      -1.0678  1.5811  -1.2104
Cl      1.1418  1.4254  1.3400
C       2.6256  -0.7230  -0.8439
C       2.1544  -1.9399  -0.0666
C       -2.4763  -1.3260  -0.4284
C       -2.4399  -1.1140  1.0874
N       1.4372  0.0989  -1.2096
N       1.0256  -1.4451  0.7876
N       -1.1233  -1.3093  -1.1076
N       -1.4769  -0.0308  1.4173
H       2.9465  -2.3432  0.5591
H       1.7886  -2.7325  -0.7137
H       -3.0314  -0.5225  -0.8746
H       -2.9945  -2.2492  -0.6494
H       1.6828  1.0703  -1.2387
H       1.1110  -0.1256  -2.1358
H       -1.8904  0.8792  1.3380
H       -1.1312  -0.1016  2.3546
H       -2.1364  -2.0063  1.6203
H       -3.4465  -0.8664  1.4141
H       0.4459  -2.2091  1.0798
H       1.4118  -1.0295  1.6184
H       3.1811  -0.9922  -1.7340
H       3.2638  -0.1157  -0.2162
H       -0.7772  -2.2437  -1.2688
H       -1.2617  -0.8704  -2.0160
