27

Co      -0.0319  -0.0570  0.0228
Cl      -1.1040  1.6524  -1.2312
Cl      1.1728  1.4751  1.3752
C       2.6446  -0.6960  -0.8199
C       2.1248  -1.9224  -0.0950
C       -2.5750  -1.3176  -0.4646
C       -2.3652  -1.1368  1.0156
N       1.4748  0.0820  -1.3027
N       1.0614  -1.5136  0.8796
N       -1.1518  -1.2600  -0.9320
N       -1.3323  -0.0783  1.1626
H       2.9217  -2.4473  0.4088
H       1.6773  -2.6201  -0.7958
H       -3.1473  -0.5283  -0.9241
H       -3.0155  -2.2771  -0.7177
H       1.6729  1.0726  -1.2914
H       1.2289  -0.1466  -2.2453
H       -1.7578  0.8304  1.0521
H       -0.9666  -0.0653  2.0921
H       -1.9708  -2.0518  1.4400
H       -3.2592  -0.8712  1.5754
H       0.5981  -2.3256  1.2383
H       1.5014  -1.0640  1.6665
H       3.2828  -0.9893  -1.6406
H       3.2131  -0.0695  -0.1572
H       -0.7592  -2.1801  -0.8646
H       -1.1296  -0.9947  -1.8995
