27

Co      0.0742  -0.0028  0.0205
Cl      -1.1097  1.6333  -1.2310
Cl      1.1462  1.4342  1.3561
C       2.5688  -0.7269  -0.7831
C       2.0604  -1.8116  -0.0626
C       -2.5306  -1.3164  -0.4292
C       -2.4395  -1.1691  1.0622
N       1.5532  0.0969  -1.3991
N       1.1155  -1.5473  0.8530
N       -1.1906  -1.3920  -1.0782
N       -1.5463  -0.0292  1.3925
H       2.9227  -2.3469  0.3253
H       1.6199  -2.4636  -0.8030
H       -3.0075  -0.4386  -0.8241
H       -3.1416  -2.1704  -0.6926
H       1.8528  1.0479  -1.5238
H       1.2914  -0.2421  -2.3017
H       -2.0002  0.8544  1.2808
H       -1.2289  -0.0789  2.3403
H       -2.0552  -2.0518  1.5522
H       -3.4484  -1.0098  1.4298
H       0.5534  -2.3854  0.9947
H       1.4687  -1.2482  1.7574
H       3.1548  -1.2737  -1.5510
H       3.2549  -0.0852  -0.2329
H       -0.8832  -2.3443  -1.1539
H       -1.2765  -1.0315  -2.0136
