27

Co      -0.0291  0.0052  0.0256
Cl      -1.0972  1.6375  -1.2411
Cl      1.1744  1.4768  1.3782
C       2.7054  -0.7279  -0.8281
C       2.1568  -1.9419  -0.1047
C       -2.5959  -1.3775  -0.4507
C       -2.4692  -1.1588  1.0322
N       1.5329  0.0362  -1.3427
N       1.0518  -1.5054  0.8173
N       -1.1574  -1.2130  -0.8878
N       -1.3750  -0.1478  1.2207
H       2.9274  -2.4556  0.4559
H       1.7453  -2.6521  -0.8110
H       -3.2266  -0.6396  -0.9464
H       -2.9503  -2.3870  -0.7092
H       1.7531  1.0144  -1.4158
H       1.2745  -0.2601  -2.2604
H       -1.7795  0.7777  1.1991
H       -0.9870  -0.2279  2.1418
H       -2.1764  -2.0891  1.5165
H       -3.3826  -0.8097  1.5156
H       0.5415  -2.3120  1.1206
H       1.4682  -1.1029  1.6402
H       3.3659  -1.0322  -1.6282
H       3.2574  -0.0917  -0.1585
H       -0.7094  -2.1123  -0.8388
H       -1.1520  -0.9391  -1.8511
