27

Co      0.0120  -0.0711  -0.0883
Cl      -1.1167  1.6717  -1.2243
Cl      1.2600  1.6202  1.5020
C       2.7354  -0.6834  -0.8615
C       2.1810  -2.0609  -0.1363
C       -2.5786  -1.2920  -0.4225
C       -2.5045  -1.2371  1.1116
N       1.4644  0.0565  -1.3554
N       0.9736  -1.5339  0.8856
N       -1.1313  -1.3357  -0.9304
N       -1.5530  -0.1012  1.3025
H       2.9270  -2.5507  0.4909
H       1.7511  -2.7866  -0.8110
H       -3.0163  -0.3791  -0.8185
H       -3.1259  -2.1460  -0.8191
H       1.6146  1.0625  -1.3550
H       1.2174  -0.1840  -2.2959
H       -2.0135  0.7711  1.0433
H       -1.2382  0.0270  2.2686
H       -2.0897  -2.1411  1.5253
H       -3.4553  -1.0599  1.5786
H       0.4289  -2.2939  1.2548
H       1.4099  -1.0769  1.6665
H       3.5294  -0.7222  -1.6387
H       3.0877  -0.0312  -0.0370
H       -0.7824  -2.2837  -0.8700
H       -1.1554  -1.1042  -1.9130
