27

Co      -0.0781  -0.0838  -0.0511
Cl      -1.1126  1.6460  -1.2195
Cl      1.2732  1.5944  1.4925
C       2.7536  -0.7511  -0.7654
C       2.1748  -1.9591  -0.1737
C       -2.5890  -1.3135  -0.4091
C       -2.4604  -1.1864  1.0646
N       1.5917  -0.0046  -1.3458
N       1.1968  -1.4562  0.8472
N       -1.2283  -1.3179  -1.0537
N       -1.5646  -0.0486  1.3213
H       2.7859  -2.5767  0.5288
H       1.7838  -2.6030  -0.9562
H       -3.2476  -0.4879  -0.6981
H       -2.9593  -2.2510  -0.8672
H       1.6808  1.0187  -1.2212
H       1.1203  -0.1774  -2.2327
H       -1.9025  0.8864  1.1062
H       -1.0820  -0.0015  2.2158
H       -2.0946  -2.1250  1.4513
H       -3.3766  -0.9393  1.5750
H       0.6813  -2.1876  1.3013
H       1.4705  -0.6722  1.5427
H       3.3299  -0.8077  -1.7106
H       3.3474  -0.2398  -0.0118
H       -0.6842  -2.1902  -1.0922
H       -1.2207  -0.8533  -1.9525
