27

Co      -0.1125  -0.0919  -0.0300
Cl      -1.0883  1.6168  -1.2055
Cl      1.2646  1.6156  1.4751
C       2.8301  -0.7442  -0.9110
C       2.2494  -2.0176  -0.1334
C       -2.6239  -1.3150  -0.4272
C       -2.4366  -1.1752  1.0462
N       1.5829  0.0716  -1.3343
N       1.0016  -1.5009  0.8545
N       -1.1944  -1.2456  -0.9327
N       -1.4406  -0.0865  1.1981
H       2.8293  -2.4623  0.7861
H       1.9832  -2.8447  -0.8211
H       -3.3307  -0.5505  -0.7741
H       -2.8814  -2.3239  -0.8863
H       1.6286  1.1195  -1.0199
H       1.0770  0.0802  -2.2692
H       -1.7614  0.8555  0.9627
H       -0.9554  0.0103  2.0890
H       -2.0700  -2.1355  1.3895
H       -3.2782  -0.8543  1.6811
H       0.4356  -2.2564  1.1787
H       1.2080  -0.8164  1.6435
H       3.3391  -0.7355  -1.9409
H       3.4652  -0.2396  -0.1783
H       -0.5992  -2.0953  -0.8882
H       -1.1022  -0.8355  -1.8544
