27

Co      0.0255  -0.0138  -0.0176
Cl      -1.0418  1.5609  -1.1857
Cl      1.1119  1.3878  1.3194
C       2.5556  -0.6706  -0.8124
C       2.0802  -1.9104  -0.0759
C       -2.3970  -1.2634  -0.4457
C       -2.3554  -1.0960  1.0746
N       1.3710  0.1011  -1.2414
N       0.9674  -1.4464  0.8033
N       -1.0391  -1.3530  -1.0934
N       -1.4316  0.0051  1.4238
H       2.8719  -2.3438  0.5115
H       1.6984  -2.6679  -0.7500
H       -2.8666  -0.4012  -0.8727
H       -2.9954  -2.1275  -0.6918
H       1.5857  1.0722  -1.3314
H       1.0445  -0.1925  -2.1490
H       -1.8601  0.9081  1.3369
H       -1.0839  -0.0494  2.3560
H       -2.0061  -1.9892  1.5673
H       -3.3627  -0.9081  1.4233
H       0.3819  -2.2104  1.0800
H       1.3571  -1.0591  1.6444
H       3.1702  -0.9122  -1.6617
H       3.1211  -0.0451  -0.1484
H       -0.7219  -2.2954  -1.1457
H       -1.1344  -1.0060  -2.0324
