27

Co      -0.0303  -0.0511  -0.0008
Cl      -1.0904  1.5887  -1.2068
Cl      1.2238  1.5431  1.4382
C       2.8830  -0.6988  -0.8991
C       2.1924  -2.0288  -0.0562
C       -2.6652  -1.4064  -0.4757
C       -2.5302  -1.2202  1.1029
N       1.5746  0.1436  -1.4774
N       1.0029  -1.4506  0.8897
N       -1.2220  -1.2043  -0.9886
N       -1.4893  -0.0459  1.2911
H       2.8000  -2.7806  0.5161
H       1.6279  -2.5685  -0.8417
H       -3.2206  -0.5486  -0.8471
H       -3.1025  -2.3216  -0.8843
H       1.7201  1.1494  -1.4473
H       1.3808  -0.1031  -2.4312
H       -1.9406  0.8466  1.1745
H       -1.1044  -0.0299  2.2241
H       -2.1615  -2.0908  1.6338
H       -3.4600  -0.9182  1.5755
H       0.4083  -2.1842  1.2405
H       1.4236  -0.9935  1.6812
H       3.4773  -1.0193  -1.7500
H       3.4639  -0.0044  -0.2964
H       -0.7702  -2.1112  -1.1100
H       -1.2337  -0.7586  -1.8974
