27

Co      0.0282  0.0358  -0.0148
Cl      -1.0225  1.5168  -1.1664
Cl      1.0926  1.3520  1.2974
C       2.5982  -0.6749  -0.8547
C       2.0898  -1.9185  -0.0542
C       -2.3970  -1.2743  -0.4606
C       -2.3953  -1.1181  1.0964
N       1.3851  0.0982  -1.2432
N       0.9196  -1.4080  0.7498
N       -1.0144  -1.2954  -1.0508
N       -1.4580  -0.0059  1.4432
H       2.9955  -2.3438  0.3771
H       1.6101  -2.6624  -0.6726
H       -2.7577  -0.3956  -0.9978
H       -3.1122  -2.1111  -0.5669
H       1.7225  1.0338  -1.5040
H       1.3362  -0.3104  -2.2023
H       -2.0188  0.8412  1.4382
H       -1.2288  -0.0946  2.4231
H       -1.9888  -1.9596  1.6545
H       -3.4613  -1.0215  1.3634
H       0.4058  -2.2073  1.0778
H       1.5092  -1.2211  1.5898
H       3.3492  -1.1059  -1.5309
H       3.0602  0.0719  -0.2151
H       -0.8453  -2.2977  -1.1095
H       -1.1900  -1.0753  -2.0321
