27

Co      -0.0101  -0.0421  -0.0309
Cl      -1.1072  1.6476  -1.2449
Cl      1.1844  1.4995  1.4045
C       2.7968  -0.6751  -0.8567
C       2.1802  -2.0679  -0.0494
C       -2.5708  -1.3799  -0.4583
C       -2.5517  -1.2247  1.1303
N       1.4979  0.1501  -1.4799
N       1.0042  -1.5518  0.9322
N       -1.0907  -1.1527  -0.8906
N       -1.4763  -0.0847  1.3390
H       2.8446  -2.7795  0.4719
H       1.6379  -2.6154  -0.8394
H       -3.0907  -0.5036  -0.8358
H       -2.9827  -2.2838  -0.9477
H       1.6473  1.1514  -1.4643
H       1.3198  -0.1096  -2.4378
H       -1.9114  0.8195  1.2603
H       -1.0636  -0.1014  2.2608
H       -2.2610  -2.1111  1.6977
H       -3.5092  -0.8722  1.5251
H       0.4143  -2.2948  1.2705
H       1.4213  -1.1079  1.7343
H       3.4461  -0.9316  -1.6829
H       3.3061  0.0270  -0.2120
H       -0.6001  -2.0411  -0.9055
H       -1.0851  -0.8060  -1.8322
