27

Co      -0.0047  -0.0181  0.0260
Cl      -1.0722  1.6170  -1.2254
Cl      1.0815  1.3447  1.2750
C       2.5063  -0.7052  -0.8086
C       2.0705  -1.8305  -0.0151
C       -2.3767  -1.2703  -0.4637
C       -2.3367  -1.0937  1.0604
N       1.4234  0.1259  -1.2606
N       1.0258  -1.5351  0.7811
N       -1.0037  -1.2723  -1.0057
N       -1.3785  -0.0027  1.3733
H       3.0809  -2.2545  0.2594
H       1.6040  -2.5514  -0.6665
H       -2.7548  -0.4109  -1.0096
H       -3.0723  -2.1253  -0.5591
H       1.8130  1.0560  -1.4179
H       1.4534  -0.2002  -2.2646
H       -1.9227  0.8562  1.4229
H       -1.1141  -0.1303  2.3359
H       -1.9384  -1.9334  1.6344
H       -3.3892  -0.9641  1.3459
H       0.6128  -2.4196  1.0568
H       1.5782  -1.3573  1.6520
H       3.1519  -1.3804  -1.4834
H       3.1332  0.0352  -0.3081
H       -0.8095  -2.2629  -1.0007
H       -1.1372  -1.0955  -2.0006
