27

Co      -0.0019  0.0268  0.0289
Cl      -1.0664  1.5639  -1.2016
Cl      1.0712  1.3089  1.2485
C       2.6627  -0.7199  -0.8750
C       2.1462  -1.9026  -0.0560
C       -2.4482  -1.2539  -0.4375
C       -2.3851  -1.1338  1.0725
N       1.5198  0.1358  -1.2945
N       1.0307  -1.4885  0.8513
N       -1.0608  -1.2465  -1.0035
N       -1.4866  0.0044  1.3929
H       2.9466  -2.3408  0.5124
H       1.7515  -2.6725  -0.7125
H       -2.9622  -0.4142  -0.8569
H       -2.9619  -2.1538  -0.7289
H       1.7718  1.1067  -1.2839
H       1.2212  -0.0662  -2.2365
H       -1.9542  0.8847  1.2860
H       -1.1493  -0.0189  2.3300
H       -1.9670  -2.0258  1.5229
H       -3.3747  -0.9906  1.4875
H       0.4818  -2.2964  1.0945
H       1.4135  -1.1216  1.7089
H       3.2101  -1.0896  -1.7434
H       3.3363  -0.1121  -0.2810
H       -0.6876  -2.1696  -1.0215
H       -1.1068  -0.9079  -1.9459
