27

Co      0.0965  -0.0021  0.0271
Cl      -1.1229  1.6894  -1.2768
Cl      1.0926  1.3486  1.2984
C       2.6049  -0.6527  -0.7850
C       2.0696  -1.9484  -0.1015
C       -2.4490  -1.3402  -0.4553
C       -2.4620  -1.1262  1.0984
N       1.3725  0.0355  -1.2439
N       1.0336  -1.4024  0.8294
N       -1.0502  -1.3048  -1.0416
N       -1.4412  -0.0791  1.4192
H       2.9627  -2.5333  0.1886
H       1.4488  -2.5474  -0.7776
H       -2.8484  -0.4930  -1.0183
H       -3.1174  -2.2119  -0.5431
H       1.6698  0.9722  -1.6310
H       1.3114  -0.4993  -2.1586
H       -1.9546  0.7959  1.3861
H       -1.2502  -0.1699  2.4215
H       -2.1502  -1.9880  1.7008
H       -3.5208  -0.9259  1.3353
H       0.5407  -2.1773  1.2515
H       1.7209  -1.1824  1.5994
H       3.4645  -0.9982  -1.4053
H       2.9512  0.0972  -0.0588
H       -0.9006  -2.3149  -1.1955
H       -1.2371  -0.9963  -1.9897
