27

Co      -0.0047  0.0090  0.0165
Cl      -1.1053  1.6771  -1.2598
Cl      1.1178  1.3926  1.3206
C       2.6393  -0.6863  -0.8282
C       2.1293  -1.9628  -0.0820
C       -2.4363  -1.3072  -0.4692
C       -2.4112  -1.1348  1.0766
N       1.4287  0.0583  -1.2854
N       1.0120  -1.5242  0.8264
N       -1.0176  -1.3010  -0.9657
N       -1.4068  -0.0655  1.3822
H       3.0586  -2.4660  0.2440
H       1.5923  -2.6321  -0.7399
H       -2.8060  -0.4447  -1.0381
H       -3.1086  -2.1696  -0.5865
H       1.7463  1.0016  -1.5418
H       1.4258  -0.3629  -2.2509
H       -1.9494  0.7980  1.4260
H       -1.1457  -0.1863  2.3553
H       -2.0323  -1.9957  1.6263
H       -3.4444  -0.9812  1.3856
H       0.5769  -2.3630  1.1879
H       1.6415  -1.3228  1.6417
H       3.4535  -1.1008  -1.4612
H       3.0441  0.0686  -0.1527
H       -0.8141  -2.2937  -0.9256
H       -1.1264  -1.1573  -1.9702
