27

Co      -0.0960  -0.0082  0.0042
Cl      -1.0843  1.5853  -1.1993
Cl      1.1809  1.4518  1.3678
C       2.7635  -0.7513  -0.7847
C       2.2058  -1.9801  -0.0553
C       -2.5984  -1.3327  -0.4691
C       -2.4018  -1.1907  1.0496
N       1.5758  0.1402  -1.4093
N       1.2087  -1.5543  0.8990
N       -1.2049  -1.2515  -1.0108
N       -1.4687  0.0305  1.2990
H       2.7902  -2.7091  0.5675
H       1.7802  -2.5352  -0.9173
H       -3.2200  -0.4528  -0.6959
H       -2.9725  -2.2323  -1.0363
H       1.7052  1.1535  -1.2320
H       1.1289  0.0099  -2.3185
H       -1.8480  0.9577  1.2307
H       -0.8921  -0.0083  2.1470
H       -2.0033  -2.1003  1.4781
H       -3.2922  -0.9050  1.6199
H       0.6217  -2.2897  1.2328
H       1.4171  -0.8507  1.6758
H       3.1175  -1.0306  -1.8388
H       3.5888  -0.2007  -0.2559
H       -0.5598  -2.0790  -0.9230
H       -1.1028  -0.8524  -1.9337
