27

Co      0.0686  0.0534  0.0421
Cl      -1.1036  1.6506  -1.2522
Cl      1.0838  1.3479  1.2868
C       2.5412  -0.7291  -0.7937
C       2.0432  -1.7773  -0.1446
C       -2.4363  -1.2594  -0.3914
C       -2.4393  -1.1393  1.0381
N       1.5692  -0.0204  -1.3414
N       1.0433  -1.5156  0.7884
N       -1.0576  -1.3272  -0.9206
N       -1.5146  -0.1401  1.3880
H       2.9553  -2.1109  0.3613
H       1.7246  -2.6002  -0.7861
H       -2.9757  -0.4873  -0.9035
H       -2.9227  -2.2069  -0.5816
H       1.8638  0.9216  -1.5627
H       1.2337  -0.4206  -2.2062
H       -1.9350  0.7619  1.2776
H       -1.2416  -0.2080  2.3485
H       -2.1150  -2.0868  1.4611
H       -3.4444  -0.9696  1.3994
H       0.5155  -2.3908  0.9008
H       1.4149  -1.2812  1.7144
H       3.2914  -1.1232  -1.4839
H       3.0655  -0.1338  -0.0762
H       -0.7438  -2.2710  -0.8706
H       -1.1126  -1.0898  -1.8942
