27

Co      0.1040  0.0247  0.0140
Cl      -1.0401  1.5292  -1.1834
Cl      1.0674  1.3117  1.2751
C       2.5715  -0.6407  -0.7957
C       2.0087  -1.8650  -0.0936
C       -2.4352  -1.3009  -0.4373
C       -2.4248  -1.1095  1.0828
N       1.4071  0.0836  -1.3194
N       0.9679  -1.3544  0.8315
N       -1.0679  -1.2937  -1.0826
N       -1.4692  -0.0340  1.4357
H       2.7567  -2.4148  0.4345
H       1.5323  -2.5304  -0.8024
H       -2.9635  -0.4767  -0.8709
H       -2.9631  -2.2035  -0.6805
H       1.6117  1.0434  -1.5552
H       1.0505  -0.3522  -2.1742
H       -1.8851  0.8758  1.3147
H       -1.1726  -0.0833  2.3861
H       -2.1252  -2.0136  1.6037
H       -3.4396  -0.8768  1.4040
H       0.3271  -2.0890  1.0947
H       1.3972  -1.0115  1.6684
H       3.2600  -0.9054  -1.5829
H       3.0775  -0.0038  -0.0964
H       -0.7534  -2.2344  -1.2504
H       -1.1858  -0.8395  -1.9843
