27

Co      0.0249  0.0138  -0.0473
Cl      -1.1349  1.6568  -1.2392
Cl      1.2025  1.4903  1.4078
C       2.7019  -0.7584  -0.7618
C       2.1970  -1.9963  -0.1439
C       -2.6294  -1.3185  -0.3900
C       -2.5300  -1.2391  1.0794
N       1.5679  0.0333  -1.3334
N       1.2381  -1.5443  0.9074
N       -1.2271  -1.2800  -0.9559
N       -1.6154  -0.0999  1.3158
H       2.8765  -2.5494  0.5128
H       1.8275  -2.6803  -0.9027
H       -3.2774  -0.4802  -0.6674
H       -2.9627  -2.2543  -0.9174
H       1.7227  1.0359  -1.2710
H       1.0380  -0.1638  -2.1953
H       -1.9763  0.8211  1.0786
H       -1.1619  -0.0375  2.2203
H       -2.1809  -2.1921  1.4589
H       -3.4481  -0.9738  1.5943
H       0.6515  -2.2767  1.2616
H       1.4981  -0.8569  1.6591
H       3.2702  -0.8067  -1.7210
H       3.3117  -0.2568  -0.0124
H       -0.6589  -2.1387  -0.9108
H       -1.2031  -0.8959  -1.8848
