27

Co      0.0541  0.0525  0.0818
Cl      -1.1077  1.6627  -1.2459
Cl      1.0796  1.3309  1.2723
C       2.5015  -0.7030  -0.7994
C       2.0229  -1.7541  -0.1368
C       -2.4345  -1.2374  -0.4392
C       -2.2863  -1.0792  0.9860
N       1.5405  0.0264  -1.3222
N       1.0808  -1.5704  0.8951
N       -1.1254  -1.5392  -1.1135
N       -1.4448  -0.0289  1.3954
H       2.9721  -2.1324  0.2623
H       1.6357  -2.5327  -0.7825
H       -2.8993  -0.4168  -0.9454
H       -3.1096  -2.1149  -0.4928
H       1.8307  0.9676  -1.5459
H       1.1655  -0.3749  -2.1748
H       -1.8906  0.8652  1.3326
H       -1.1545  -0.1386  2.3447
H       -1.8407  -2.0067  1.3381
H       -3.2768  -1.0338  1.4288
H       0.5781  -2.4732  0.9738
H       1.4713  -1.3722  1.8290
H       3.2224  -1.1197  -1.5066
H       3.0643  -0.1132  -0.1054
H       -0.9146  -2.5210  -1.0709
H       -1.1812  -1.2863  -2.0800
