27

Co      0.0245  0.0074  -0.0045
Cl      -1.1225  1.6717  -1.2590
Cl      1.1305  1.3926  1.3235
C       2.6698  -0.7214  -0.8525
C       2.1815  -1.9854  -0.0684
C       -2.4472  -1.2999  -0.4456
C       -2.4466  -1.1491  1.1176
N       1.4604  0.0893  -1.2246
N       1.0880  -1.5068  0.8442
N       -1.0852  -1.3620  -1.1127
N       -1.5515  0.0010  1.4935
H       3.1265  -2.4644  0.2586
H       1.6278  -2.6733  -0.6920
H       -2.7891  -0.3944  -0.9665
H       -3.2122  -2.1127  -0.5481
H       1.8152  1.0297  -1.4237
H       1.4367  -0.2602  -2.2063
H       -2.1239  0.8392  1.4702
H       -1.3282  -0.0864  2.4874
H       -2.0164  -1.9782  1.6778
H       -3.5331  -1.0948  1.3574
H       0.6426  -2.3277  1.2384
H       1.7227  -1.2608  1.6328
H       3.4166  -1.1396  -1.5376
H       3.1483  0.0075  -0.2067
H       -0.9411  -2.3811  -1.2381
H       -1.2924  -1.0865  -2.0736
