27

Co      -0.0917  -0.0726  -0.0368
Cl      -1.1258  1.7127  -1.2548
Cl      1.2406  1.5754  1.4557
C       2.8147  -0.7221  -0.8589
C       2.2534  -2.0915  -0.1634
C       -2.5329  -1.2816  -0.4462
C       -2.4369  -1.1960  1.0790
N       1.4725  -0.0127  -1.2428
N       1.0026  -1.4708  0.7769
N       -1.0742  -1.3029  -0.8926
N       -1.4578  -0.0921  1.2794
H       2.9414  -2.5779  0.5583
H       1.8596  -2.8389  -0.8400
H       -2.9962  -0.4072  -0.8794
H       -3.0391  -2.1715  -0.8089
H       1.5975  0.9999  -1.2356
H       1.2172  -0.2372  -2.1878
H       -1.9077  0.7961  1.1089
H       -1.1008  -0.0235  2.2279
H       -2.0241  -2.1104  1.4829
H       -3.3634  -0.9982  1.5798
H       0.5157  -2.2211  1.2577
H       1.4668  -0.9351  1.5067
H       3.5533  -0.7131  -1.6972
H       3.2019  -0.0916  -0.0420
H       -0.6798  -2.2327  -0.7487
H       -1.0469  -1.1224  -1.8886
