27

Co      0.1088  0.0799  0.0375
Cl      -1.0982  1.5944  -1.2174
Cl      1.0551  1.2594  1.2341
C       2.6290  -0.6775  -0.8121
C       2.1071  -1.9509  -0.0830
C       -2.5247  -1.3002  -0.4650
C       -2.4186  -1.1567  1.0775
N       1.4086  0.0815  -1.1983
N       1.1076  -1.3873  0.8676
N       -1.1344  -1.3117  -1.0620
N       -1.4974  -0.0155  1.3672
H       3.0218  -2.5223  0.1859
H       1.4665  -2.5725  -0.7281
H       -2.9053  -0.4164  -0.9772
H       -3.2365  -2.1403  -0.5575
H       1.7624  1.0091  -1.5658
H       1.3099  -0.4115  -2.1128
H       -2.0906  0.8145  1.2781
H       -1.3295  -0.0349  2.3755
H       -1.9412  -2.0016  1.5794
H       -3.4521  -1.0978  1.4418
H       0.6173  -2.1567  1.3153
H       1.8150  -1.1517  1.6164
H       3.4202  -1.0518  -1.4840
H       3.0595  0.0449  -0.1215
H       -0.9974  -2.3274  -1.1547
H       -1.3028  -1.0505  -2.0287
