27

Co      -0.0490  -0.0260  -0.0992
Cl      -1.0722  1.6106  -1.2011
Cl      1.2529  1.6029  1.4805
C       2.6036  -0.7479  -0.7834
C       2.1960  -1.9980  -0.1033
C       -2.5398  -1.3206  -0.4070
C       -2.4546  -1.1689  1.0648
N       1.4650  0.0729  -1.3012
N       1.1018  -1.6342  0.8512
N       -1.1626  -1.3416  -1.0060
N       -1.4848  -0.0856  1.3303
H       2.9235  -2.3773  0.6598
H       1.9795  -2.8169  -0.8204
H       -3.1805  -0.5062  -0.7339
H       -2.9053  -2.2628  -0.8672
H       1.6182  1.0822  -1.1214
H       0.9551  -0.0151  -2.2053
H       -1.7999  0.8671  1.2361
H       -0.9355  -0.1359  2.1904
H       -2.1792  -2.1221  1.4904
H       -3.3751  -0.8336  1.5342
H       0.5158  -2.4020  1.1065
H       1.2648  -0.9810  1.6780
H       3.1115  -0.7987  -1.7826
H       3.2563  -0.2338  -0.0815
H       -0.5811  -2.1919  -0.9037
H       -1.1507  -1.0214  -1.9570
