27

Co      0.0350  0.0464  -0.0200
Cl      -1.0695  1.5701  -1.1800
Cl      1.1300  1.3823  1.3228
C       2.5644  -0.7052  -0.8303
C       2.1240  -1.9137  -0.1575
C       -2.4941  -1.2229  -0.4175
C       -2.3347  -1.1104  1.0285
N       1.4430  0.0328  -1.1445
N       1.0907  -1.4625  0.8856
N       -1.1562  -1.4247  -1.1053
N       -1.4979  -0.0290  1.3331
H       3.0251  -2.2127  0.4043
H       1.7452  -2.7852  -0.7155
H       -3.0120  -0.4149  -0.8955
H       -3.0897  -2.1295  -0.5234
H       1.7034  0.9989  -1.2460
H       1.0480  -0.2350  -2.0344
H       -1.9680  0.8468  1.1501
H       -1.2163  -0.0011  2.2934
H       -1.8450  -2.0317  1.3491
H       -3.3037  -1.0743  1.5222
H       0.6173  -2.2664  1.2552
H       1.5703  -1.0302  1.6517
H       3.3131  -0.7908  -1.6321
H       3.0211  -0.1535  -0.0030
H       -0.9111  -2.3988  -1.1024
H       -1.2655  -1.1491  -2.0680
