27

Co      0.0000  -0.0035  -0.0045
Cl      -1.0624  1.5917  -1.1908
Cl      1.1273  1.4018  1.3400
C       2.5958  -0.6582  -0.7895
C       2.0605  -1.9054  -0.1098
C       -2.4481  -1.2450  -0.4618
C       -2.3358  -1.1371  1.0476
N       1.4322  0.0716  -1.3456
N       1.0115  -1.4907  0.8666
N       -1.0566  -1.3613  -1.0066
N       -1.4290  -0.0094  1.3450
H       2.8463  -2.4553  0.3754
H       1.6004  -2.5642  -0.8358
H       -2.8800  -0.3466  -0.8710
H       -3.0558  -2.0869  -0.7556
H       1.6279  1.0463  -1.4829
H       1.1524  -0.2912  -2.2421
H       -1.8935  0.8767  1.2410
H       -1.0749  -0.0235  2.2766
H       -1.9000  -2.0376  1.4620
H       -3.3037  -1.0065  1.5060
H       0.4793  -2.2793  1.1716
H       1.4402  -1.1002  1.6834
H       3.3072  -0.9109  -1.5598
H       3.0762  -0.0115  -0.0769
H       -0.7257  -2.3031  -0.9052
H       -1.0636  -1.1395  -1.9873
