27

Co      -0.0037  -0.0045  0.0126
Cl      -1.1107  1.6285  -1.2366
Cl      1.1834  1.4732  1.3737
C       2.8484  -0.7269  -0.8619
C       2.2661  -2.1088  -0.0598
C       -2.6671  -1.4104  -0.4797
C       -2.5160  -1.2120  1.0917
N       1.4595  0.1047  -1.2633
N       1.0639  -1.4155  0.8068
N       -1.2097  -1.2130  -0.9656
N       -1.4394  -0.0648  1.2618
H       2.8799  -2.7746  0.5891
H       1.7631  -2.7205  -0.8142
H       -3.2202  -0.5604  -0.8615
H       -3.0976  -2.3331  -0.8782
H       1.6308  1.1010  -1.2992
H       1.1755  -0.1520  -2.1891
H       -1.8865  0.8340  1.1642
H       -1.0579  -0.0614  2.1959
H       -2.1763  -2.0950  1.6254
H       -3.4321  -0.8669  1.5770
H       0.4419  -2.0964  1.2433
H       1.5148  -0.9108  1.5598
H       3.3791  -0.8993  -1.8137
H       3.4533  -0.0689  -0.2413
H       -0.7486  -2.1119  -1.0170
H       -1.2207  -0.8320  -1.8963
