27

Co      -0.0658  0.0177  -0.0438
Cl      -1.0529  1.5674  -1.1933
Cl      1.2231  1.5324  1.4417
C       2.8064  -0.6924  -0.8250
C       2.2133  -2.1076  -0.0794
C       -2.5810  -1.4156  -0.4926
C       -2.4916  -1.1750  1.0949
N       1.4361  0.0864  -1.3621
N       1.0324  -1.4730  0.8377
N       -1.1623  -1.2881  -1.0542
N       -1.4273  -0.0425  1.3787
H       2.8425  -2.8158  0.5092
H       1.6887  -2.6623  -0.8686
H       -3.1078  -0.5555  -0.8961
H       -3.0769  -2.3111  -0.8452
H       1.5942  1.0775  -1.4682
H       1.1957  -0.2584  -2.2758
H       -1.8622  0.8765  1.4527
H       -0.9468  -0.1915  2.2698
H       -2.1961  -2.0552  1.6633
H       -3.4494  -0.8401  1.4892
H       0.4379  -2.1696  1.2703
H       1.4785  -0.9619  1.5876
H       3.4503  -0.8340  -1.6915
H       3.2905  0.0013  -0.1426
H       -0.6966  -2.1865  -1.0746
H       -1.2060  -0.9480  -1.9947
