27

Co      -0.0117  -0.0289  -0.0058
Cl      -1.1371  1.7177  -1.2603
Cl      1.2196  1.5508  1.4313
C       2.6860  -0.7452  -0.7973
C       2.2054  -2.0039  -0.1265
C       -2.5961  -1.3158  -0.4504
C       -2.4298  -1.2041  1.0407
N       1.4561  -0.0047  -1.2280
N       1.0718  -1.5179  0.7449
N       -1.1610  -1.3696  -0.9019
N       -1.4338  -0.1117  1.2201
H       2.9788  -2.4654  0.4900
H       1.8479  -2.7481  -0.8313
H       -3.0574  -0.4411  -0.8765
H       -3.1366  -2.1977  -0.7755
H       1.6717  0.9781  -1.3208
H       1.1694  -0.2966  -2.1378
H       -1.8840  0.7769  1.0778
H       -1.0909  -0.0790  2.1676
H       -2.0300  -2.1191  1.4563
H       -3.3457  -0.9773  1.5625
H       0.5428  -2.2955  1.0891
H       1.4845  -1.0845  1.5539
H       3.3373  -0.9273  -1.6371
H       3.2094  -0.1152  -0.0927
H       -0.7900  -2.3036  -0.7237
H       -1.1333  -1.2303  -1.9136
