27

Co      -0.0493  -0.0112  -0.0576
Cl      -1.0806  1.5754  -1.1894
Cl      1.1772  1.4476  1.3666
C       2.7852  -0.7145  -0.8346
C       2.2692  -2.1381  -0.0489
C       -2.6049  -1.3266  -0.4692
C       -2.4618  -1.2193  1.1082
N       1.4086  0.1503  -1.2295
N       1.1228  -1.4664  0.8738
N       -1.1418  -1.1440  -0.9359
N       -1.4660  -0.0074  1.2539
H       2.9428  -2.7773  0.5364
H       1.7532  -2.7588  -0.7848
H       -3.1174  -0.4247  -0.7995
H       -3.0562  -2.2080  -0.9462
H       1.5962  1.1538  -1.1483
H       1.1860  -0.0066  -2.2060
H       -1.9598  0.8660  1.1263
H       -1.0478  0.0568  2.1728
H       -2.0302  -2.0868  1.5945
H       -3.3878  -0.9707  1.6198
H       0.5947  -2.1502  1.4515
H       1.6069  -0.8285  1.5416
H       3.3260  -0.8320  -1.7963
H       3.3680  -0.0696  -0.1880
H       -0.6540  -2.0344  -0.8783
H       -1.1461  -0.8597  -1.9004
