27

Co      0.0303  0.0311  0.0112
Cl      -1.0794  1.5954  -1.2146
Cl      1.0842  1.3252  1.2578
C       2.5806  -0.7193  -0.8359
C       2.1770  -1.9621  -0.0514
C       -2.4608  -1.2747  -0.4479
C       -2.3476  -1.1022  1.0607
N       1.3895  0.1368  -1.1338
N       1.0898  -1.5032  0.8547
N       -1.1089  -1.3572  -1.1156
N       -1.4390  0.0236  1.3895
H       3.0198  -2.3435  0.5118
H       1.7963  -2.7665  -0.6820
H       -2.9584  -0.4282  -0.8737
H       -3.0506  -2.1550  -0.6620
H       1.6599  1.1028  -1.1524
H       1.0248  -0.0586  -2.0588
H       -1.8933  0.9150  1.3126
H       -1.0890  -0.0320  2.3216
H       -1.9468  -1.9906  1.5230
H       -3.3362  -0.9412  1.4693
H       0.5322  -2.2765  1.1624
H       1.5004  -1.0890  1.6743
H       3.0933  -0.9621  -1.7726
H       3.2583  -0.1343  -0.2201
H       -0.7837  -2.2963  -1.1615
H       -1.2074  -1.0086  -2.0547
