27

Co      0.0028  0.0358  0.0034
Cl      -1.0225  1.5168  -1.1664
Cl      1.0926  1.3556  1.2974
C       2.6128  -0.6676  -0.8729
C       2.0752  -1.8930  -0.0470
C       -2.4224  -1.2815  -0.4716
C       -2.3808  -1.1181  1.0746
N       1.4361  0.1200  -1.3269
N       0.9123  -1.4625  0.8080
N       -1.0217  -1.2627  -0.9999
N       -1.4144  -0.0204  1.3850
H       2.9955  -2.3475  0.3334
H       1.5737  -2.6151  -0.6762
H       -2.8122  -0.4284  -1.0269
H       -3.0904  -2.1475  -0.5742
H       1.7698  1.0592  -1.5477
H       1.4235  -0.2703  -2.3006
H       -1.9751  0.8303  1.4091
H       -1.1633  -0.1201  2.3539
H       -1.9597  -1.9669  1.6108
H       -3.4176  -1.0070  1.3998
H       0.4313  -2.3019  1.0924
H       1.4947  -1.3084  1.6699
H       3.3783  -1.1714  -1.5164
H       3.0820  0.0901  -0.2515
H       -0.8235  -2.2540  -1.0077
H       -1.1500  -1.0753  -1.9920
