27

Co      -0.0456  0.0137  -0.0700
Cl      -1.0968  1.6083  -1.2223
Cl      1.2017  1.4888  1.3990
C       2.7800  -0.7368  -0.8858
C       2.2760  -2.1055  -0.1060
C       -2.5786  -1.3489  -0.4169
C       -2.5301  -1.1804  1.1112
N       1.5087  0.0966  -1.2524
N       1.1216  -1.5383  0.9424
N       -1.1609  -1.1925  -1.0012
N       -1.5335  -0.0866  1.3535
H       3.0616  -2.5604  0.4949
H       1.8209  -2.8688  -0.7250
H       -3.1991  -0.5748  -0.8721
H       -2.9667  -2.3264  -0.7097
H       1.7258  1.0922  -1.1628
H       1.2477  -0.0359  -2.2242
H       -1.9770  0.8132  1.2752
H       -1.1345  -0.1171  2.2805
H       -2.1854  -2.0846  1.5907
H       -3.4975  -0.9312  1.5237
H       0.6522  -2.2995  1.4334
H       1.6073  -0.9704  1.6439
H       3.4696  -0.7909  -1.7522
H       3.2540  -0.1356  -0.1117
H       -0.7207  -2.1016  -1.0762
H       -1.2636  -0.8244  -1.9334
