27

Co      0.0132  0.0487  -0.0042
Cl      -1.0732  1.5737  -1.1837
Cl      1.1337  1.3896  1.3302
C       2.6091  -0.6892  -0.8193
C       2.1172  -1.9311  -0.0825
C       -2.5226  -1.2704  -0.4650
C       -2.3376  -1.1419  1.0415
N       1.4768  0.1307  -1.3273
N       1.1182  -1.5723  0.9712
N       -1.1759  -1.4371  -1.1280
N       -1.4857  0.0362  1.3697
H       2.9681  -2.4637  0.3242
H       1.6217  -2.5992  -0.7758
H       -2.9684  -0.3702  -0.8633
H       -3.1851  -2.1013  -0.6896
H       1.7346  1.0967  -1.4116
H       1.1745  -0.1642  -2.2355
H       -1.9832  0.9069  1.3005
H       -1.1159  -0.0125  2.2952
H       -1.8360  -2.0242  1.4318
H       -3.3106  -1.0802  1.5268
H       0.6022  -2.3830  1.2557
H       1.5544  -1.1858  1.7862
H       3.2614  -0.9836  -1.6280
H       3.1736  -0.0639  -0.1483
H       -0.8721  -2.3913  -1.0905
H       -1.2308  -1.1638  -2.0919
