27

Co      0.0043  -0.0014  0.0144
Cl      -1.0964  1.6463  -1.2395
Cl      1.0901  1.3272  1.2924
C       2.6023  -0.6423  -0.7685
C       2.0439  -1.9063  -0.1187
C       -2.3933  -1.2625  -0.4534
C       -2.3565  -1.1049  1.0693
N       1.4671  0.0840  -1.3899
N       1.1090  -1.5238  0.9910
N       -1.0324  -1.3477  -1.0912
N       -1.4619  0.0119  1.4606
H       2.8514  -2.5632  0.2190
H       1.4616  -2.4617  -0.8677
H       -2.8612  -0.3898  -0.8786
H       -2.9922  -2.1197  -0.7055
H       1.6575  1.0550  -1.5465
H       1.2041  -0.3114  -2.2837
H       -1.9075  0.9153  1.4222
H       -1.0886  -0.0865  2.3856
H       -1.9729  -2.0019  1.5362
H       -3.3722  -0.9683  1.4260
H       0.6253  -2.3229  1.3494
H       1.5972  -1.1006  1.7587
H       3.3633  -0.9041  -1.4997
H       3.0477  0.0001  -0.0301
H       -0.7074  -2.2906  -1.1276
H       -1.0975  -0.9951  -2.0228
