27

Co      0.0350  0.0539  -0.0150
Cl      -1.0820  1.5993  -1.2092
Cl      1.1508  1.4198  1.3478
C       2.6196  -0.7210  -0.7901
C       2.1683  -1.9890  -0.1014
C       -2.5401  -1.3257  -0.4494
C       -2.4157  -1.1456  1.0569
N       1.4094  0.0539  -1.1889
N       1.1150  -1.4792  0.8212
N       -1.1779  -1.3979  -1.0970
N       -1.4736  -0.0371  1.3682
H       2.9747  -2.4574  0.4444
H       1.7492  -2.7172  -0.7800
H       -3.0410  -0.4764  -0.8786
H       -3.1243  -2.2070  -0.6710
H       1.6681  1.0158  -1.3498
H       1.0555  -0.2801  -2.0705
H       -1.9262  0.8587  1.3156
H       -1.1116  -0.1137  2.3000
H       -2.0403  -2.0442  1.5206
H       -3.3931  -0.9541  1.4730
H       0.5495  -2.2278  1.1758
H       1.5569  -1.0435  1.6090
H       3.2509  -0.8938  -1.6531
H       3.1685  -0.1099  -0.0893
H       -0.8441  -2.3395  -1.1048
H       -1.2720  -1.0990  -2.0521
