27

Co      -0.0048  -0.0539  -0.0242
Cl      -1.0643  1.5685  -1.1821
Cl      1.1939  1.5019  1.4176
C       2.6859  -0.6934  -0.8290
C       2.0830  -1.8877  -0.1114
C       -2.5222  -1.2963  -0.4333
C       -2.4416  -1.1670  1.0788
N       1.5294  0.0607  -1.3854
N       1.0012  -1.4146  0.8130
N       -1.1385  -1.2864  -1.0211
N       -1.5164  -0.0413  1.3414
H       2.8225  -2.4460  0.4452
H       1.6287  -2.5571  -0.8271
H       -3.0385  -0.4454  -0.8404
H       -3.0447  -2.1900  -0.7340
H       1.7227  1.0452  -1.4432
H       1.2926  -0.2411  -2.3102
H       -1.9626  0.8454  1.1674
H       -1.1936  -0.0077  2.2916
H       -2.0446  -2.0578  1.5413
H       -3.4185  -0.9902  1.4957
H       0.4695  -2.1939  1.1430
H       1.4145  -0.9776  1.6140
H       3.3725  -1.0086  -1.5978
H       3.2076  -0.0469  -0.1451
H       -0.7913  -2.2281  -1.0980
H       -1.2034  -0.9158  -1.9531
