27

Co      0.0818  0.0971  0.0429
Cl      -1.0884  1.6124  -1.2204
Cl      1.0603  1.2982  1.2564
C       2.5214  -0.6959  -0.7859
C       2.0475  -1.8374  -0.0392
C       -2.4565  -1.2760  -0.4726
C       -2.3735  -1.1613  1.0529
N       1.4701  0.1048  -1.3612
N       1.0780  -1.5849  0.8531
N       -1.0840  -1.4093  -1.0211
N       -1.4854  -0.0083  1.4156
H       3.0701  -2.3562  0.1211
H       1.5033  -2.4651  -0.7343
H       -2.7401  -0.3342  -0.9798
H       -3.2695  -2.0509  -0.5893
H       1.8948  1.0105  -1.7361
H       1.4428  -0.4100  -2.2870
H       -2.0897  0.8187  1.4558
H       -1.2551  -0.1400  2.3924
H       -1.8932  -2.0020  1.5601
H       -3.4321  -1.1396  1.3801
H       0.5871  -2.4677  1.0212
H       1.6464  -1.5328  1.7722
H       3.2685  -1.3696  -1.3823
H       3.0625  0.0672  -0.2315
H       -0.9411  -2.4216  -0.9248
H       -1.1922  -1.3245  -2.0474
