27

Co      -0.0208  0.0013  -0.0035
Cl      -1.0920  1.5777  -1.1764
Cl      1.2120  1.5000  1.4210
C       2.7326  -0.7225  -0.7909
C       2.1205  -1.9022  -0.1526
C       -2.6699  -1.2896  -0.4358
C       -2.4095  -1.2166  1.0174
N       1.6293  0.0509  -1.4464
N       1.1714  -1.4989  0.9388
N       -1.2816  -1.3426  -0.9888
N       -1.5393  -0.0397  1.2162
H       2.7573  -2.5548  0.4659
H       1.6909  -2.5215  -0.9450
H       -3.2971  -0.4366  -0.7059
H       -3.0615  -2.2069  -0.9036
H       1.7457  1.0613  -1.3902
H       1.1198  -0.1842  -2.3001
H       -1.9316  0.8661  0.9624
H       -1.0898  0.0608  2.1158
H       -1.9221  -2.1619  1.2983
H       -3.2714  -1.0470  1.6904
H       0.6070  -2.2620  1.2464
H       1.4312  -0.8594  1.7119
H       3.3196  -0.8798  -1.7012
H       3.3487  -0.1993  -0.0653
H       -0.7518  -2.2168  -0.8904
H       -1.1844  -0.9841  -1.9264
