27

Co      -0.0076  -0.0897  -0.0276
Cl      -1.1302  1.6637  -1.2313
Cl      1.2585  1.5856  1.4808
C       2.7457  -0.7296  -0.8111
C       2.1493  -1.9433  -0.1377
C       -2.6272  -1.3359  -0.4266
C       -2.4878  -1.2040  1.0782
N       1.5645  0.0237  -1.3383
N       1.1245  -1.4279  0.8356
N       -1.2440  -1.3142  -1.0351
N       -1.5559  -0.0662  1.2813
H       2.8907  -2.5532  0.3782
H       1.6435  -2.5707  -0.8619
H       -3.1622  -0.4850  -0.8224
H       -3.1453  -2.2374  -0.7233
H       1.7595  1.0168  -1.3675
H       1.3466  -0.2494  -2.2726
H       -2.0065  0.8153  1.0549
H       -1.2478  0.0163  2.2469
H       -2.0675  -2.0911  1.5271
H       -3.4427  -1.0230  1.5382
H       0.6495  -2.1972  1.2832
H       1.5916  -0.8963  1.5606
H       3.4416  -0.9916  -1.5911
H       3.2560  -0.0967  -0.0995
H       -0.9054  -2.2663  -1.1458
H       -1.3191  -0.9193  -1.9591
