27

Co      0.0758  -0.0382  0.0382
Cl      -1.0729  1.5643  -1.1982
Cl      1.0957  1.3512  1.2927
C       2.5197  -0.6818  -0.8105
C       2.0085  -1.7765  -0.0184
C       -2.5061  -1.3246  -0.4565
C       -2.3888  -1.1054  1.0578
N       1.4606  0.1495  -1.2972
N       1.0637  -1.4195  0.8465
N       -1.1531  -1.2327  -1.0788
N       -1.4164  -0.0107  1.2949
H       2.9901  -2.3141  0.1828
H       1.4204  -2.4160  -0.6790
H       -2.9817  -0.5151  -0.9896
H       -3.1417  -2.2293  -0.4999
H       1.8442  1.0812  -1.4809
H       1.4780  -0.2122  -2.2825
H       -1.9540  0.8454  1.2245
H       -1.2249  -0.0492  2.2869
H       -1.9775  -1.9375  1.6355
H       -3.4194  -0.9527  1.3888
H       0.6365  -2.2708  1.1795
H       1.6734  -1.2085  1.6646
H       3.1859  -1.3967  -1.4613
H       3.1483  0.0538  -0.3038
H       -0.9976  -2.2390  -1.2987
H       -1.3471  -0.8560  -2.0079
