27

Co      0.0355  0.0408  0.0111
Cl      -1.0864  1.6299  -1.2295
Cl      1.0801  1.3040  1.2724
C       2.4805  -0.6843  -0.6999
C       2.0570  -1.8946  -0.0781
C       -2.4150  -1.2941  -0.4738
C       -2.3428  -1.0991  1.0517
N       1.3394  0.0433  -1.1720
N       1.1749  -1.4622  0.8090
N       -1.0615  -1.3412  -1.0827
N       -1.3979  -0.0050  1.3877
H       3.0514  -2.4595  0.0834
H       1.4593  -2.4837  -0.7764
H       -2.7833  -0.4160  -1.0055
H       -3.1609  -2.1254  -0.5314
H       1.7249  0.9603  -1.5535
H       1.3158  -0.4734  -2.1010
H       -1.9550  0.8571  1.4664
H       -1.1285  -0.1641  2.3504
H       -1.9396  -1.9431  1.6151
H       -3.4004  -0.9875  1.3370
H       0.7801  -2.2703  1.2957
H       1.8586  -1.1633  1.5416
H       3.2504  -1.1587  -1.3435
H       2.9479  0.0492  -0.0608
H       -0.8982  -2.3446  -1.0802
H       -1.2348  -1.1720  -2.0767
