27

Co      0.0409  0.0038  0.0860
Cl      -1.1229  1.7009  -1.2778
Cl      1.1031  1.3806  1.3026
C       2.5582  -0.7243  -0.8010
C       2.0404  -1.7580  -0.1547
C       -2.4394  -1.2746  -0.4187
C       -2.3689  -1.0923  1.0050
N       1.5621  -0.0350  -1.3087
N       1.0322  -1.4875  0.7748
N       -1.0904  -1.4197  -1.0062
N       -1.4335  -0.1104  1.3643
H       2.9248  -2.1233  0.3610
H       1.7045  -2.5621  -0.8062
H       -2.9757  -0.5146  -0.9550
H       -2.9793  -2.2221  -0.5163
H       1.8211  0.9153  -1.5246
H       1.2099  -0.4349  -2.1682
H       -1.8312  0.8061  1.2743
H       -1.1609  -0.2019  2.3248
H       -2.0349  -2.0371  1.4214
H       -3.3537  -0.9185  1.3987
H       0.5191  -2.3682  0.8895
H       1.4118  -1.2570  1.7001
H       3.2791  -1.1271  -1.5108
H       3.1095  -0.1314  -0.1018
H       -0.8235  -2.3812  -1.0086
H       -1.1412  -1.1264  -1.9591
