27

Co      -0.0037  0.0154  0.0022
Cl      -1.1178  1.6683  -1.2462
Cl      1.1898  1.4835  1.3987
C       2.7166  -0.7300  -0.7689
C       2.1662  -1.9879  -0.1530
C       -2.5961  -1.3445  -0.4449
C       -2.4787  -1.1999  1.0489
N       1.4922  -0.0369  -1.2796
N       1.1104  -1.4406  0.7643
N       -1.1604  -1.2868  -0.9028
N       -1.4597  -0.1332  1.2584
H       2.9018  -2.5598  0.4071
H       1.7200  -2.6429  -0.8895
H       -3.1309  -0.5196  -0.8865
H       -3.0543  -2.2736  -0.7584
H       1.7007  0.9376  -1.4800
H       1.2078  -0.4387  -2.1571
H       -1.9002  0.7681  1.1614
H       -1.1090  -0.1510  2.2007
H       -2.1285  -2.1230  1.4985
H       -3.4108  -0.9372  1.5255
H       0.5879  -2.1917  1.1831
H       1.5804  -0.9694  1.5191
H       3.4446  -0.8999  -1.5554
H       3.1688  -0.0945  -0.0143
H       -0.7569  -2.2073  -0.8020
H       -1.1612  -1.0727  -1.8860
