27

Co      -0.0616  -0.0872  -0.0688
Cl      -1.1258  1.7012  -1.2539
Cl      1.2301  1.5471  1.4514
C       2.7044  -0.7192  -0.7057
C       2.1918  -2.0695  -0.0868
C       -2.5419  -1.3409  -0.4560
C       -2.4914  -1.2298  1.1110
N       1.4044  0.0400  -1.2956
N       1.1694  -1.4886  0.7715
N       -1.0810  -1.1738  -0.8752
N       -1.4596  -0.0666  1.2810
H       2.8797  -2.8009  0.3947
H       1.6782  -2.5775  -0.9295
H       -3.0064  -0.4097  -0.7837
H       -3.0193  -2.1939  -0.9840
H       1.5852  1.0352  -1.3387
H       1.2687  -0.2591  -2.2510
H       -1.9096  0.8312  1.1978
H       -1.0207  -0.0572  2.1955
H       -2.1665  -2.1056  1.6717
H       -3.4497  -0.9075  1.5119
H       0.6853  -2.1929  1.3563
H       1.6364  -0.8346  1.4402
H       3.3178  -0.9370  -1.5609
H       3.2319  -0.0366  -0.0608
H       -0.5872  -2.0646  -0.7545
H       -1.0713  -0.9608  -1.8606
