27

Co      -0.0701  0.0166  -0.0706
Cl      -1.0832  1.5794  -1.1840
Cl      1.2439  1.5458  1.4566
C       2.8086  -0.7140  -0.8472
C       2.2309  -2.0892  -0.1519
C       -2.6845  -1.3446  -0.4413
C       -2.5054  -1.2275  1.0625
N       1.5298  0.0390  -1.3281
N       1.1205  -1.4970  0.9338
N       -1.2131  -1.1620  -0.8664
N       -1.4770  -0.1330  1.1644
H       2.9731  -2.6585  0.4103
H       1.7200  -2.7678  -0.8261
H       -3.3049  -0.5610  -0.8838
H       -3.0276  -2.3316  -0.7815
H       1.7121  1.0419  -1.3189
H       1.3091  -0.1931  -2.2758
H       -1.9491  0.7536  1.0348
H       -1.0803  -0.0755  2.0921
H       -2.0746  -2.1477  1.4479
H       -3.3909  -0.9891  1.6548
H       0.6928  -2.2514  1.5046
H       1.6539  -0.8904  1.5865
H       3.6082  -0.7387  -1.6370
H       3.1693  -0.0874  -0.0031
H       -0.7429  -2.0641  -0.7549
H       -1.2060  -0.9502  -1.8527
