27

Co      0.0594  0.0370  0.0922
Cl      -1.0872  1.6266  -1.2460
Cl      1.0537  1.2892  1.2412
C       2.4706  -0.6819  -0.8037
C       1.9860  -1.7231  -0.1167
C       -2.4088  -1.2945  -0.4341
C       -2.3072  -1.0118  0.9911
N       1.5249  0.0620  -1.3174
N       1.0819  -1.5283  0.9424
N       -1.1256  -1.4456  -1.1862
N       -1.3827  -0.0394  1.4212
H       2.9401  -2.1189  0.2498
H       1.5556  -2.4895  -0.7476
H       -3.0138  -0.5881  -0.9972
H       -2.9644  -2.2706  -0.3943
H       1.8096  1.0032  -1.5063
H       1.1502  -0.3150  -2.1799
H       -1.7663  0.8963  1.4361
H       -1.0665  -0.2372  2.3549
H       -1.9859  -1.9446  1.4365
H       -3.3132  -0.8421  1.3511
H       0.5954  -2.4254  1.0542
H       1.4944  -1.2977  1.8491
H       3.1723  -1.1288  -1.5205
H       3.0628  -0.1024  -0.1293
H       -0.8889  -2.4120  -1.3512
H       -1.2592  -1.0006  -2.0852
