27

Co      -0.0794  -0.0009  -0.0212
Cl      -1.0806  1.5869  -1.1904
Cl      1.1877  1.4759  1.3709
C       2.8131  -0.7520  -0.9271
C       2.2961  -2.0734  -0.1038
C       -2.5829  -1.2673  -0.4507
C       -2.3987  -1.1854  1.0632
N       1.4983  0.0847  -1.1767
N       1.0253  -1.4660  0.8099
N       -1.1481  -1.2687  -0.9489
N       -1.4729  -0.0285  1.2479
H       3.0261  -2.4590  0.6481
H       1.9389  -2.9205  -0.7083
H       -3.0942  -0.4179  -0.8692
H       -3.0761  -2.1770  -0.7667
H       1.6953  1.0881  -1.0625
H       1.1951  -0.0107  -2.1472
H       -1.9666  0.8352  1.0677
H       -1.1235  0.0602  2.1922
H       -1.8921  -2.0829  1.4230
H       -3.3101  -1.0571  1.6400
H       0.5204  -2.2261  1.2446
H       1.4633  -0.9506  1.5648
H       3.4011  -0.8335  -1.8632
H       3.3770  -0.1593  -0.2125
H       -0.7510  -2.1938  -0.8465
H       -1.1434  -1.0430  -1.9327
