27

Co      -0.0658  0.0071  -0.0452
Cl      -1.0744  1.5600  -1.1647
Cl      1.2267  1.5052  1.4327
C       2.7395  -0.7376  -0.7950
C       2.1742  -1.9707  -0.1415
C       -2.6062  -1.2871  -0.4482
C       -2.4103  -1.1989  1.0528
N       1.5512  0.0280  -1.3023
N       1.1828  -1.4454  0.8514
N       -1.2313  -1.3246  -1.0447
N       -1.5508  -0.0076  1.2872
H       2.9384  -2.5747  0.3471
H       1.6634  -2.6011  -0.8588
H       -3.1102  -0.4068  -0.8247
H       -3.1695  -2.1569  -0.7408
H       1.7830  1.0105  -1.3636
H       1.3234  -0.2610  -2.2300
H       -2.0617  0.8529  1.1518
H       -1.1800  0.0276  2.2219
H       -1.8830  -2.0796  1.4295
H       -3.3578  -1.1275  1.5820
H       0.7495  -2.2122  1.3724
H       1.6785  -0.8610  1.5323
H       3.4374  -0.9571  -1.5904
H       3.2413  -0.1156  -0.0637
H       -0.8655  -2.2661  -0.9931
H       -1.2758  -1.0678  -2.0142
