27

Co      0.0080  0.0313  0.0079
Cl      -1.0225  1.5116  -1.1716
Cl      1.0821  1.3242  1.2869
C       2.4882  -0.6878  -0.7817
C       1.9767  -1.7319  -0.1338
C       -2.3843  -1.2592  -0.4023
C       -2.3710  -1.0567  1.0279
N       1.5300  0.0274  -1.3364
N       1.0480  -1.4410  0.8467
N       -1.0538  -1.2432  -1.0391
N       -1.4426  -0.0769  1.3895
H       2.8920  -2.1103  0.3179
H       1.5887  -2.5214  -0.7646
H       -3.0319  -0.5633  -0.9360
H       -2.8109  -2.2664  -0.4966
H       1.8089  0.9765  -1.4812
H       1.2358  -0.3256  -2.2307
H       -1.8413  0.8475  1.3563
H       -1.1077  -0.2024  2.3170
H       -2.0598  -1.9917  1.4827
H       -3.3828  -0.8692  1.3700
H       0.6031  -2.3042  1.1054
H       1.4695  -1.0730  1.6765
H       3.2419  -1.0852  -1.4709
H       3.0106  -0.1011  -0.0592
H       -0.7216  -2.1770  -1.1313
H       -1.1792  -0.8700  -1.9641
