27

Co      0.0070  0.0564  0.0215
Cl      -1.0897  1.6314  -1.2494
Cl      1.0917  1.3289  1.2954
C       2.5876  -0.7021  -0.7501
C       2.0480  -1.8527  -0.0795
C       -2.4012  -1.3359  -0.4513
C       -2.4587  -1.1269  1.0866
N       1.5196  0.0388  -1.3958
N       1.1347  -1.5194  0.8390
N       -1.0375  -1.2691  -1.0359
N       -1.4928  -0.0532  1.5008
H       3.0217  -2.4762  0.0575
H       1.4319  -2.3941  -0.8074
H       -2.8186  -0.4968  -1.0111
H       -3.0631  -2.2074  -0.5429
H       1.9060  0.9528  -1.7699
H       1.5690  -0.5053  -2.3371
H       -2.0331  0.8193  1.6540
H       -1.2000  -0.2997  2.4564
H       -2.1352  -1.9761  1.7117
H       -3.5587  -0.9773  1.2641
H       0.7320  -2.3842  1.1846
H       1.7670  -1.3177  1.6483
H       3.4152  -1.3356  -1.2954
H       3.0425  0.0657  -0.1360
H       -0.8185  -2.2550  -1.1030
H       -1.2165  -1.0360  -2.0059
