27

Co      0.0018  0.0660  0.0119
Cl      -1.0897  1.6366  -1.2442
Cl      1.1022  1.3604  1.3059
C       2.6684  -0.7005  -0.8135
C       2.1179  -1.9363  -0.1074
C       -2.4142  -1.2908  -0.4396
C       -2.4448  -1.1532  1.0860
N       1.5304  0.0540  -1.4141
N       1.0470  -1.5682  0.8763
N       -1.0276  -1.3532  -1.0103
N       -1.5256  -0.0471  1.5135
H       2.9148  -2.4771  0.3710
H       1.6713  -2.5935  -0.8357
H       -2.8671  -0.4171  -0.8800
H       -2.9900  -2.1510  -0.7389
H       1.7639  1.0125  -1.6027
H       1.2445  -0.3461  -2.2988
H       -1.9764  0.8521  1.5325
H       -1.1405  -0.2018  2.4354
H       -2.1103  -2.0602  1.5760
H       -3.4746  -0.9855  1.3977
H       0.4794  -2.3827  1.0743
H       1.4434  -1.2602  1.7534
H       3.3886  -1.0046  -1.5607
H       3.1602  -0.0483  -0.1154
H       -0.6577  -2.2805  -0.9601
H       -1.0727  -1.0916  -1.9743
