27

Co      0.0000  0.0013  -0.0006
Cl      -1.1224  1.6338  -1.2162
Cl      1.1816  1.4496  1.3766
C       2.7365  -0.7370  -0.8114
C       2.1746  -1.9600  -0.1280
C       -2.6117  -1.2819  -0.4406
C       -2.4286  -1.2142  1.0598
N       1.5582  0.0450  -1.2983
N       1.1750  -1.4611  0.8696
N       -1.2186  -1.3317  -1.0073
N       -1.5649  -0.0228  1.2865
H       2.9446  -2.5535  0.3530
H       1.6650  -2.5992  -0.8412
H       -3.0893  -0.3851  -0.8106
H       -3.1821  -2.1405  -0.7607
H       1.7918  1.0245  -1.3721
H       1.2934  -0.2459  -2.2148
H       -2.0728  0.8317  1.0764
H       -1.2552  0.0611  2.2470
H       -1.9082  -2.1002  1.4353
H       -3.3765  -1.1364  1.5879
H       0.6916  -2.2343  1.3024
H       1.6554  -0.9613  1.6028
H       3.4034  -0.9917  -1.6214
H       3.2781  -0.1207  -0.1089
H       -0.8787  -2.2803  -0.9751
H       -1.2455  -1.0520  -1.9702
