27

Co      -0.0941  -0.0527  -0.0246
Cl      -1.0732  1.5733  -1.1788
Cl      1.2306  1.5344  1.4342
C       2.6926  -0.7244  -0.8460
C       2.1620  -1.9302  -0.0876
C       -2.6060  -1.3228  -0.4595
C       -2.3678  -1.1358  1.0278
N       1.5505  0.1177  -1.3296
N       1.1380  -1.5351  0.9376
N       -1.2393  -1.2811  -1.0656
N       -1.4192  -0.0111  1.2165
H       2.9834  -2.4705  0.3739
H       1.6749  -2.6159  -0.7692
H       -3.2058  -0.5323  -0.8956
H       -3.0848  -2.2730  -0.6667
H       1.7803  1.1121  -1.2084
H       1.3571  -0.0189  -2.3140
H       -1.8776  0.8818  1.1425
H       -1.0084  -0.0244  2.1299
H       -1.9006  -2.0210  1.4420
H       -3.2854  -0.9614  1.5777
H       0.7471  -2.3628  1.3733
H       1.5912  -0.9891  1.6672
H       3.3091  -1.0590  -1.6714
H       3.3023  -0.1073  -0.2025
H       -0.8511  -2.2096  -1.0933
H       -1.2859  -0.9398  -2.0069
