27

Co      -0.0557  -0.0259  -0.1040
Cl      -1.0592  1.5791  -1.1881
Cl      1.2400  1.5829  1.4711
C       2.7603  -0.7143  -0.8991
C       2.2212  -2.0642  -0.1096
C       -2.5147  -1.3061  -0.4148
C       -2.5222  -1.2005  1.1250
N       1.4955  0.0767  -1.3443
N       0.9467  -1.5340  0.8385
N       -1.0806  -1.2408  -0.9423
N       -1.5470  -0.0946  1.3826
H       2.9715  -2.4663  0.5995
H       1.8647  -2.8699  -0.7458
H       -3.0339  -0.4638  -0.8501
H       -2.9745  -2.2202  -0.7815
H       1.6778  1.0773  -1.2735
H       1.2622  -0.0911  -2.3145
H       -1.9911  0.7958  1.2627
H       -1.1608  -0.0874  2.3149
H       -2.1765  -2.1043  1.5983
H       -3.5030  -0.9767  1.5092
H       0.4127  -2.3069  1.1936
H       1.3433  -1.0611  1.6350
H       3.4888  -0.7987  -1.7148
H       3.1849  -0.0726  -0.1239
H       -0.6590  -2.1585  -0.9188
H       -1.1434  -0.9740  -1.9111
