27

Co      0.0148  -0.0451  -0.0716
Cl      -1.0904  1.5878  -1.1954
Cl      1.2343  1.5741  1.4549
C       2.7083  -0.7658  -0.8817
C       2.1992  -1.9527  -0.0656
C       -2.5984  -1.3149  -0.3942
C       -2.5476  -1.2361  1.1165
N       1.5666  0.1054  -1.3347
N       1.0318  -1.5187  0.7915
N       -1.1905  -1.2330  -0.9487
N       -1.6169  -0.0854  1.3203
H       3.0045  -2.3385  0.5759
H       1.8668  -2.7649  -0.7124
H       -3.1299  -0.4611  -0.7808
H       -3.0695  -2.2206  -0.7741
H       1.8336  1.0902  -1.2295
H       1.3446  -0.0177  -2.3157
H       -2.0806  0.7812  1.0883
H       -1.3035  0.0060  2.2809
H       -2.1564  -2.1207  1.5918
H       -3.5279  -1.0397  1.5242
H       0.4847  -2.3189  1.0600
H       1.3765  -1.0873  1.6369
H       3.2883  -1.1122  -1.7249
H       3.3470  -0.1407  -0.2657
H       -0.7999  -2.1625  -1.0048
H       -1.2741  -0.9013  -1.8994
