27

Co      0.0000  -0.0090  0.0045
Cl      -1.1019  1.6030  -1.2110
Cl      1.1662  1.4393  1.3560
C       2.7041  -0.7489  -0.8185
C       2.1730  -1.9259  -0.1141
C       -2.5860  -1.2940  -0.4150
C       -2.4269  -1.1731  1.0513
N       1.5751  0.0828  -1.3118
N       1.1577  -1.4850  0.8848
N       -1.2219  -1.3178  -1.0500
N       -1.5443  -0.0228  1.3207
H       2.8274  -2.4457  0.6020
H       1.8287  -2.6557  -0.8475
H       -3.2392  -0.4724  -0.7053
H       -2.9638  -2.2311  -0.8539
H       1.7153  1.0895  -1.1826
H       1.0143  -0.0528  -2.1859
H       -1.9005  0.8999  1.0887
H       -1.1035  0.0302  2.2232
H       -2.0329  -2.1136  1.4153
H       -3.3375  -0.9485  1.5961
H       0.5517  -2.2328  1.1641
H       1.3809  -0.8510  1.6847
H       3.1663  -0.8951  -1.8312
H       3.4333  -0.2586  -0.1555
H       -0.6965  -2.1881  -1.0865
H       -1.2015  -0.8436  -1.9482
