27

Co      -0.0588  -0.0429  -0.0660
Cl      -1.0859  1.6263  -1.2294
Cl      1.1954  1.5010  1.4088
C       2.6844  -0.7404  -0.7953
C       2.1846  -1.9931  -0.1116
C       -2.4911  -1.3236  -0.4051
C       -2.5196  -1.1756  1.1043
N       1.4858  0.0245  -1.2707
N       1.0841  -1.4741  0.7684
N       -1.0546  -1.1124  -0.8754
N       -1.4855  -0.1279  1.3246
H       2.9615  -2.4567  0.4941
H       1.8039  -2.7341  -0.7980
H       -3.0978  -0.5468  -0.8538
H       -2.8373  -2.3034  -0.7713
H       1.7058  1.0115  -1.2514
H       1.2863  -0.1888  -2.2352
H       -1.8960  0.7872  1.2460
H       -1.0892  -0.1585  2.2489
H       -2.2538  -2.0894  1.6383
H       -3.4992  -0.8532  1.4552
H       0.6246  -2.2435  1.2410
H       1.5191  -0.9065  1.4977
H       3.3551  -0.9436  -1.6148
H       3.1955  -0.1178  -0.0836
H       -0.5787  -2.0048  -0.8649
H       -1.1180  -0.8217  -1.8331
