27

Co      -0.0095  -0.0401  -0.0038
Cl      -1.1413  1.6757  -1.2517
Cl      1.2088  1.5030  1.4143
C       2.7933  -0.7546  -0.8241
C       2.1848  -1.9565  -0.1385
C       -2.5945  -1.3192  -0.4164
C       -2.5185  -1.2237  1.0935
N       1.6129  0.0095  -1.3437
N       1.1411  -1.4334  0.8118
N       -1.1909  -1.2675  -0.9736
N       -1.6051  -0.0749  1.3401
H       2.9158  -2.5555  0.4003
H       1.6970  -2.5956  -0.8612
H       -3.1178  -0.4608  -0.8091
H       -3.0886  -2.2183  -0.7622
H       1.8263  0.9943  -1.4023
H       1.3820  -0.2801  -2.2709
H       -2.0723  0.7983  1.1322
H       -1.3021  -0.0132  2.3080
H       -2.1025  -2.1159  1.5443
H       -3.4939  -1.0616  1.5210
H       0.6474  -2.2067  1.2291
H       1.5995  -0.9345  1.5586
H       3.4749  -1.0359  -1.6108
H       3.3233  -0.1279  -0.1237
H       -0.8208  -2.2067  -1.0380
H       -1.2460  -0.9068  -1.9082
