27

Co      -0.0019  0.0358  0.0244
Cl      -1.0529  1.5729  -1.2061
Cl      1.0622  1.3089  1.2530
C       2.6245  -0.6816  -0.8775
C       2.1080  -1.9117  -0.0423
C       -2.3897  -1.2675  -0.4669
C       -2.3784  -1.1158  1.0816
N       1.4431  0.1224  -1.2965
N       0.9427  -1.4929  0.8174
N       -0.9796  -1.2463  -0.9741
N       -1.4167  -0.0181  1.4108
H       3.0400  -2.3498  0.3334
H       1.6134  -2.6455  -0.6645
H       -2.7678  -0.4097  -1.0245
H       -3.0530  -2.1312  -0.5882
H       1.7815  1.0616  -1.4916
H       1.4258  -0.2376  -2.2795
H       -1.9775  0.8326  1.4395
H       -1.1680  -0.1248  2.3820
H       -1.9644  -1.9669  1.6225
H       -3.4246  -1.0070  1.3881
H       0.4734  -2.3416  1.1017
H       1.5274  -1.3412  1.6815
H       3.3619  -1.1854  -1.5444
H       3.1218  0.0644  -0.2702
H       -0.7721  -2.2330  -0.9633
H       -1.0962  -1.0683  -1.9687
