27

Co      0.0000  -0.0028  -0.0052
Cl      -1.0624  1.5917  -1.1908
Cl      1.1273  1.4018  1.3400
C       2.4833  -0.6979  -0.7690
C       2.0108  -1.7685  -0.1484
C       -2.4100  -1.2048  -0.4129
C       -2.3170  -1.1019  1.0145
N       1.5041  0.0083  -1.3054
N       1.0607  -1.5080  0.8325
N       -1.0646  -1.3670  -1.0022
N       -1.4578  -0.0554  1.3306
H       2.9433  -2.1237  0.3083
H       1.6550  -2.5701  -0.7885
H       -2.9173  -0.3976  -0.8953
H       -2.9753  -2.1134  -0.5702
H       1.7749  0.9657  -1.4298
H       1.2181  -0.3222  -2.2062
H       -1.9022  0.8357  1.2060
H       -1.1460  -0.0790  2.2736
H       -1.8842  -2.0289  1.3788
H       -3.3023  -1.0223  1.4533
H       0.6299  -2.3823  1.0884
H       1.4712  -1.1420  1.6702
H       3.2424  -1.0458  -1.4654
H       2.9844  -0.1065  -0.0297
H       -0.7804  -2.3246  -0.9144
H       -1.1204  -1.1612  -1.9866
