27

Co      0.0658  0.0031  0.0400
Cl      -1.1229  1.6947  -1.2715
Cl      1.1031  1.3837  1.3088
C       2.6247  -0.6716  -0.8399
C       2.0970  -1.9334  -0.0732
C       -2.4745  -1.3160  -0.4663
C       -2.4317  -1.1524  1.0766
N       1.4287  0.0730  -1.3118
N       0.9738  -1.5095  0.8352
N       -1.0470  -1.3245  -0.9539
N       -1.4185  -0.0831  1.3557
H       3.0204  -2.4425  0.2498
H       1.5541  -2.5998  -0.7340
H       -2.8295  -0.4418  -1.0264
H       -3.1585  -2.1696  -0.5924
H       1.7433  1.0134  -1.6065
H       1.3935  -0.3806  -2.2568
H       -1.9582  0.7745  1.3202
H       -1.2162  -0.1481  2.3524
H       -2.0529  -2.0162  1.6205
H       -3.4562  -0.9900  1.4032
H       0.4770  -2.3454  1.1086
H       1.5856  -1.3904  1.7005
H       3.4359  -1.1214  -1.4642
H       3.0412  0.0892  -0.1791
H       -0.8788  -2.3290  -0.9520
H       -1.1499  -1.1485  -1.9497
