27

Co      0.0006  -0.0035  0.0240
Cl      -1.0624  1.5980  -1.1970
Cl      1.1273  1.3950  1.3338
C       2.6409  -0.6649  -0.8209
C       2.0819  -1.9196  -0.1054
C       -2.4258  -1.2638  -0.4931
C       -2.3198  -1.1123  1.0581
N       1.3883  0.0323  -1.2310
N       0.9598  -1.3696  0.7413
N       -1.0575  -1.4291  -1.1005
N       -1.4180  0.0238  1.3990
H       2.9394  -2.4641  0.2843
H       1.5284  -2.5679  -0.7748
H       -2.7166  -0.3356  -1.0184
H       -3.2510  -2.0493  -0.5582
H       1.6747  0.9761  -1.5738
H       1.3330  -0.4634  -2.1592
H       -1.9920  0.8648  1.3681
H       -1.2046  -0.0371  2.3890
H       -1.8317  -1.9510  1.5531
H       -3.3551  -1.0835  1.4089
H       0.4814  -2.1591  1.1436
H       1.6036  -1.1507  1.5345
H       3.4447  -1.0430  -1.4706
H       3.0374  0.0897  -0.1329
H       -0.9508  -2.4592  -1.1089
H       -1.1878  -1.2455  -2.0918
