27

Co      0.0095  0.0414  0.0032
Cl      -1.0695  1.5701  -1.1800
Cl      1.1300  1.3859  1.3228
C       2.6159  -0.6861  -0.8423
C       2.1314  -1.9521  -0.0627
C       -2.5447  -1.2840  -0.4891
C       -2.3370  -1.1456  1.0403
N       1.4164  0.1186  -1.2344
N       1.0695  -1.5035  0.8882
N       -1.1549  -1.3546  -1.0476
N       -1.4137  0.0067  1.2714
H       3.0926  -2.4527  0.2192
H       1.5565  -2.6324  -0.6910
H       -2.9074  -0.3923  -1.0105
H       -3.2844  -2.1171  -0.5620
H       1.7720  1.0610  -1.4417
H       1.3889  -0.2444  -2.2069
H       -2.0196  0.8335  1.2408
H       -1.1706  -0.0218  2.2482
H       -1.7883  -1.9845  1.4877
H       -3.3246  -1.1145  1.5092
H       0.6555  -2.3329  1.3059
H       1.7276  -1.2539  1.6607
H       3.3760  -1.1101  -1.5202
H       3.0852  0.0475  -0.1911
H       -0.9955  -2.3658  -0.9926
H       -1.2651  -1.2240  -2.0602
