27

Co      0.1012  -0.0146  0.0061
Cl      -1.0800  1.6041  -1.2078
Cl      1.1021  1.3578  1.3177
C       2.5613  -0.6246  -0.7463
C       2.0008  -1.8910  -0.1292
C       -2.4608  -1.2780  -0.4479
C       -2.3866  -1.1285  1.0694
N       1.3760  0.0487  -1.3041
N       1.0330  -1.3690  0.8697
N       -1.0892  -1.3651  -1.0825
N       -1.4634  -0.0230  1.3820
H       2.7504  -2.5226  0.3200
H       1.4569  -2.4794  -0.8735
H       -2.9224  -0.3949  -0.8511
H       -3.0646  -2.1292  -0.7122
H       1.5514  1.0168  -1.5721
H       1.0380  -0.4275  -2.1498
H       -1.8988  0.8746  1.2011
H       -1.1795  -0.0071  2.3427
H       -2.0179  -2.0299  1.5365
H       -3.3801  -0.9512  1.4557
H       0.4431  -2.0937  1.2351
H       1.5196  -0.9598  1.6411
H       3.3182  -0.8083  -1.5039
H       2.9832  0.0172  0.0170
H       -0.8122  -2.3243  -1.1752
H       -1.1743  -0.9785  -2.0067
