27

Co      0.0089  -0.1080  -0.0400
Cl      -1.1364  1.6791  -1.2560
Cl      1.2090  1.5280  1.4147
C       2.7914  -0.7065  -0.8507
C       2.2443  -2.1107  -0.0451
C       -2.6259  -1.3754  -0.4476
C       -2.5393  -1.2244  1.1336
N       1.4220  0.1460  -1.2655
N       1.0645  -1.4488  0.8580
N       -1.1546  -1.1336  -0.9263
N       -1.4711  -0.0661  1.2479
H       2.8950  -2.7558  0.5675
H       1.7333  -2.7283  -0.7879
H       -3.1695  -0.5029  -0.7973
H       -3.0320  -2.2886  -0.9287
H       1.5727  1.1601  -1.1521
H       1.2092  0.0050  -2.2487
H       -1.9047  0.8285  1.0294
H       -1.1155  0.0454  2.1979
H       -2.2148  -2.0983  1.6921
H       -3.4727  -0.8661  1.5760
H       0.4947  -2.1353  1.3623
H       1.5200  -0.8637  1.5699
H       3.3301  -0.8665  -1.7970
H       3.3827  -0.0508  -0.2237
H       -0.6938  -2.0346  -1.0311
H       -1.1895  -0.7113  -1.8453
