27

Co      -0.0818  -0.1140  -0.0386
Cl      -1.0758  1.5823  -1.1815
Cl      1.2332  1.5429  1.4396
C       2.7097  -0.7322  -0.8294
C       2.1649  -1.9345  -0.1086
C       -2.5646  -1.2902  -0.4364
C       -2.3941  -1.1490  1.0603
N       1.5044  0.0638  -1.2282
N       1.0925  -1.3809  0.7882
N       -1.1803  -1.2110  -1.0175
N       -1.4557  -0.0196  1.2186
H       2.9111  -2.4495  0.4913
H       1.7259  -2.6551  -0.7851
H       -3.1484  -0.4805  -0.8427
H       -3.0223  -2.2312  -0.7164
H       1.6984  1.0677  -1.1100
H       1.3017  -0.0688  -2.2135
H       -1.9035  0.8670  1.0132
H       -1.1095  0.0755  2.1624
H       -1.9487  -2.0316  1.4979
H       -3.3266  -0.9608  1.5654
H       0.6752  -2.1465  1.3287
H       1.5545  -0.7532  1.4708
H       3.3033  -0.9884  -1.6943
H       3.3090  -0.1270  -0.1667
H       -0.7986  -2.1427  -1.0953
H       -1.2442  -0.8299  -1.9468
