27

Co      0.0206  0.0022  -0.0699
Cl      -1.0543  1.5512  -1.1606
Cl      1.1944  1.5170  1.4143
C       2.6889  -0.6856  -0.8871
C       2.1860  -2.0457  -0.0976
C       -2.5922  -1.2777  -0.4397
C       -2.4454  -1.2123  1.0766
N       1.4076  0.1011  -1.2664
N       0.9276  -1.4918  0.8425
N       -1.1303  -1.2734  -0.8906
N       -1.4670  -0.0896  1.2179
H       2.9438  -2.4298  0.6097
H       1.8312  -2.8744  -0.7236
H       -3.0767  -0.4073  -0.8508
H       -3.0811  -2.1719  -0.8080
H       1.5962  1.0972  -1.2564
H       1.0971  -0.1003  -2.2017
H       -1.9415  0.7800  0.9870
H       -1.1440  0.0362  2.1699
H       -2.0028  -2.1239  1.4577
H       -3.3570  -1.0199  1.6306
H       0.3423  -2.2396  1.1765
H       1.3397  -1.0672  1.6533
H       3.3850  -0.7383  -1.7430
H       3.1368  -0.0559  -0.1171
H       -0.7484  -2.2010  -0.7572
H       -1.1259  -1.0956  -1.8937
