27

Co      -0.0387  -0.0702  0.0269
Cl      -1.1045  1.6120  -1.2137
Cl      1.1688  1.4551  1.3613
C       2.7571  -0.7353  -0.8723
C       2.1536  -1.8928  -0.0933
C       -2.5955  -1.2895  -0.4342
C       -2.4308  -1.1863  1.0537
N       1.6037  0.0861  -1.3438
N       1.0636  -1.4264  0.8315
N       -1.1639  -1.1551  -0.8933
N       -1.4730  -0.0605  1.1927
H       2.8980  -2.4319  0.4755
H       1.7048  -2.6003  -0.7822
H       -3.1821  -0.4861  -0.8467
H       -2.9937  -2.2485  -0.7684
H       1.8096  1.0825  -1.2532
H       1.3921  -0.0771  -2.3158
H       -1.9344  0.8156  0.9555
H       -1.1688  0.0587  2.1515
H       -1.9752  -2.0843  1.4656
H       -3.3458  -0.9937  1.6022
H       0.5988  -2.2329  1.2098
H       1.4920  -0.9463  1.6075
H       3.3480  -1.1188  -1.7025
H       3.3952  -0.1195  -0.2537
H       -0.7569  -2.0746  -0.9121
H       -1.1546  -0.8086  -1.8353
