27

Co      0.0249  -0.0097  -0.0415
Cl      -1.1019  1.5967  -1.2048
Cl      1.1662  1.4424  1.3622
C       2.7705  -0.6962  -0.8574
C       2.2295  -2.1013  -0.0327
C       -2.6210  -1.3354  -0.4626
C       -2.4898  -1.2332  1.1229
N       1.4417  0.1908  -1.3149
N       1.0993  -1.5069  0.9452
N       -1.1786  -1.2227  -0.9978
N       -1.5293  0.0044  1.3121
H       2.9230  -2.7649  0.4908
H       1.6782  -2.6934  -0.7752
H       -3.0931  -0.3997  -0.7767
H       -3.1430  -2.1786  -0.9300
H       1.6375  1.1876  -1.2644
H       1.1979  0.0016  -2.2745
H       -2.0276  0.8683  1.1346
H       -1.1588  0.0839  2.2509
H       -2.0508  -2.0927  1.6144
H       -3.4400  -1.0200  1.6006
H       0.5095  -2.2099  1.3832
H       1.5548  -0.9844  1.6850
H       3.3231  -0.8894  -1.7845
H       3.3650  -0.0380  -0.2328
H       -0.7518  -2.1359  -1.0299
H       -1.2101  -0.8656  -1.9388
