27

Co      0.0070  0.0342  0.0290
Cl      -1.0397  1.5177  -1.1718
Cl      1.1053  1.3526  1.2940
C       2.6893  -0.7157  -0.8787
C       2.1206  -1.8771  -0.0761
C       -2.4365  -1.2731  -0.4493
C       -2.3721  -1.1075  1.0772
N       1.5292  0.1063  -1.3032
N       0.9974  -1.4059  0.7996
N       -1.1247  -1.4131  -1.2035
N       -1.5453  0.0647  1.5194
H       2.8708  -2.3583  0.5263
H       1.7051  -2.6128  -0.7480
H       -2.9042  -0.3998  -0.8596
H       -3.0953  -2.1168  -0.6451
H       1.7695  1.0698  -1.4008
H       1.1851  -0.1909  -2.2032
H       -2.0140  0.9440  1.4424
H       -1.2194  -0.0184  2.4614
H       -1.9417  -1.9789  1.5464
H       -3.4052  -1.0332  1.4198
H       0.3886  -2.1865  1.0070
H       1.3710  -1.0713  1.6738
H       3.2494  -1.0811  -1.7339
H       3.3462  -0.0966  -0.2754
H       -0.8406  -2.3721  -1.3676
H       -1.2504  -0.9608  -2.1056
