27

Co      0.0340  0.0702  -0.0058
Cl      -1.1026  1.6681  -1.2571
Cl      1.1151  1.3768  1.3153
C       2.5931  -0.6931  -0.8084
C       2.1555  -2.0094  -0.0756
C       -2.4267  -1.3253  -0.4704
C       -2.4141  -1.1216  1.0878
N       1.3728  0.0686  -1.2194
N       1.0720  -1.5692  0.8593
N       -1.0621  -1.4365  -1.1156
N       -1.4576  -0.0278  1.4965
H       3.1309  -2.4798  0.2139
H       1.6140  -2.6875  -0.7167
H       -2.7543  -0.4311  -1.0329
H       -3.2148  -2.1386  -0.5223
H       1.7336  0.9951  -1.5529
H       1.3066  -0.3930  -2.1551
H       -2.0107  0.8347  1.6136
H       -1.1756  -0.2353  2.4611
H       -2.0424  -1.9705  1.6577
H       -3.4905  -1.0109  1.3251
H       0.5978  -2.3901  1.2035
H       1.7073  -1.3841  1.6780
H       3.4011  -1.0404  -1.4674
H       2.9938  0.0520  -0.1157
H       -0.9103  -2.4480  -1.1272
H       -1.2481  -1.2671  -2.1104
