27

Co      -0.0123  -0.0807  -0.0111
Cl      -1.1471  1.7288  -1.2755
Cl      1.2191  1.5388  1.4408
C       2.7124  -0.7121  -0.7843
C       2.1371  -1.9575  -0.1465
C       -2.5360  -1.3219  -0.4309
C       -2.4719  -1.1837  1.0807
N       1.5220  -0.0010  -1.3439
N       1.1009  -1.4762  0.8314
N       -1.1344  -1.3248  -0.9869
N       -1.5088  -0.0864  1.3385
H       2.8856  -2.5645  0.3557
H       1.6473  -2.5741  -0.8907
H       -3.0323  -0.4618  -0.8516
H       -3.0629  -2.2121  -0.7464
H       1.6992  0.9876  -1.4374
H       1.2949  -0.3337  -2.2606
H       -1.9369  0.8131  1.1843
H       -1.1760  -0.0739  2.2930
H       -2.1172  -2.0866  1.5568
H       -3.4453  -0.9645  1.4815
H       0.6150  -2.2550  1.2385
H       1.5613  -0.9920  1.5858
H       3.4477  -0.9381  -1.5426
H       3.1697  -0.0684  -0.0462
H       -0.7819  -2.2678  -1.0159
H       -1.1798  -0.9978  -1.9312
