27

Co      0.0377  0.1000  -0.0168
Cl      -1.0367  1.5350  -1.1652
Cl      1.1017  1.3464  1.3052
C       2.5922  -0.6729  -0.8009
C       2.1037  -1.9675  -0.0890
C       -2.4607  -1.2739  -0.4816
C       -2.3712  -1.1497  1.0659
N       1.3574  0.0532  -1.2225
N       1.0090  -1.4421  0.7835
N       -1.0691  -1.3841  -1.0402
N       -1.4547  -0.0122  1.3942
H       3.0238  -2.4580  0.2624
H       1.5706  -2.6471  -0.7389
H       -2.7673  -0.3495  -1.0018
H       -3.2420  -2.0690  -0.5885
H       1.7079  0.9792  -1.6150
H       1.2806  -0.4649  -2.1370
H       -2.0546  0.8206  1.4158
H       -1.2092  -0.1067  2.3684
H       -1.8928  -1.9975  1.5548
H       -3.4078  -1.1092  1.4223
H       0.5094  -2.2260  1.1739
H       1.6544  -1.2351  1.5804
H       3.4190  -1.0074  -1.4500
H       2.9649  0.0778  -0.0883
H       -0.9122  -2.3934  -0.9455
H       -1.2004  -1.3039  -2.0681
