27

Co      -0.0089  0.0066  0.0065
Cl      -1.1313  1.6646  -1.2365
Cl      1.2093  1.5149  1.4047
C       2.7970  -0.7827  -0.7969
C       2.2683  -2.0532  -0.0582
C       -2.6798  -1.3533  -0.4761
C       -2.4865  -1.2793  1.0735
N       1.4967  0.0561  -1.2681
N       1.1321  -1.4751  0.6901
N       -1.2225  -1.3022  -0.8886
N       -1.5101  -0.0499  1.2317
H       2.9336  -2.6927  0.5496
H       1.8474  -2.6640  -0.8622
H       -3.0927  -0.3848  -0.7837
H       -3.2427  -2.1687  -0.9724
H       1.7386  1.0351  -1.3561
H       1.2515  -0.2380  -2.1883
H       -2.0194  0.8073  1.0911
H       -1.1416  0.0068  2.1726
H       -2.0354  -2.1484  1.5444
H       -3.4044  -1.0543  1.6070
H       0.5199  -2.1919  1.0546
H       1.5177  -1.0069  1.4964
H       3.2689  -1.1156  -1.7305
H       3.4937  -0.1144  -0.2608
H       -0.7786  -2.2124  -0.7106
H       -1.1643  -1.1393  -1.8955
