27

Co      0.0037  0.0171  -0.0126
Cl      -1.0786  1.6246  -1.2237
Cl      1.1519  1.4430  1.3724
C       2.5152  -0.7083  -0.8141
C       2.0394  -1.7998  -0.1180
C       -2.4088  -1.2810  -0.4213
C       -2.4021  -1.0983  1.0512
N       1.5267  0.0185  -1.3344
N       1.0456  -1.5663  0.8454
N       -1.0751  -1.3783  -1.0607
N       -1.4847  -0.0843  1.4267
H       3.1297  -2.1431  0.1253
H       1.5703  -2.5745  -0.7005
H       -2.8399  -0.4923  -1.0537
H       -3.1023  -2.1830  -0.3651
H       1.9258  0.9408  -1.5964
H       1.5333  -0.4009  -2.2987
H       -2.0146  0.7805  1.4747
H       -1.2526  -0.2482  2.4053
H       -2.0118  -1.9723  1.5572
H       -3.4765  -1.0375  1.3078
H       0.7002  -2.5035  1.1064
H       1.6435  -1.4202  1.7015
H       3.4198  -1.2584  -1.3240
H       2.9127  0.0104  -0.1052
H       -0.9533  -2.4025  -1.1043
H       -1.2775  -1.2007  -2.0518
