27

Co      0.1088  0.0793  0.0375
Cl      -1.0642  1.5726  -1.2168
Cl      1.0307  1.2491  1.2180
C       2.4458  -0.6908  -0.8012
C       2.0175  -1.7889  -0.0941
C       -2.4023  -1.2857  -0.4200
C       -2.3916  -1.0625  1.0450
N       1.4208  0.0426  -1.1736
N       1.0515  -1.4329  0.8148
N       -1.0646  -1.3034  -1.0711
N       -1.4355  -0.0840  1.4049
H       3.0950  -2.0918  0.1887
H       1.5468  -2.6079  -0.6391
H       -2.8982  -0.5501  -1.0638
H       -3.0289  -2.2349  -0.3246
H       1.8425  0.9483  -1.5309
H       1.3011  -0.4208  -2.0911
H       -1.9502  0.7896  1.4089
H       -1.2675  -0.2272  2.4009
H       -2.0475  -1.9474  1.5758
H       -3.4616  -0.9421  1.2978
H       0.6195  -2.3033  1.1011
H       1.6854  -1.3028  1.6578
H       3.2700  -1.1859  -1.4003
H       2.9086  -0.0115  -0.1102
H       -0.9543  -2.3200  -1.2171
H       -1.3050  -1.0241  -2.0286
