27

Co      0.1172  0.0851  0.0186
Cl      -1.0635  1.5404  -1.2054
Cl      1.0946  1.3371  1.2904
C       2.5343  -0.7205  -0.7989
C       2.0667  -1.8426  -0.0217
C       -2.5175  -1.4025  -0.4439
C       -2.4958  -1.1143  1.0857
N       1.4628  0.1141  -1.2712
N       1.1141  -1.4564  0.8171
N       -1.2033  -1.3212  -1.1846
N       -1.5100  -0.0425  1.4674
H       3.0681  -2.3362  0.1998
H       1.5102  -2.5034  -0.6711
H       -3.0093  -0.6128  -1.0067
H       -3.1827  -2.3083  -0.4271
H       1.9117  1.0165  -1.6163
H       1.4044  -0.3558  -2.2017
H       -2.0370  0.8294  1.5591
H       -1.2752  -0.2607  2.4424
H       -2.1932  -1.9496  1.7434
H       -3.5889  -0.9208  1.2685
H       0.6009  -2.2843  1.0774
H       1.7060  -1.3086  1.6746
H       3.2165  -1.3792  -1.4550
H       3.1422  0.0149  -0.2682
H       -1.0439  -2.3255  -1.4745
H       -1.4913  -0.9103  -2.0996
