27

Co      -0.0249  0.0047  0.0465
Cl      -1.0749  1.6272  -1.2263
Cl      1.1482  1.4362  1.3588
C       2.5914  -0.7200  -0.7444
C       2.0551  -1.8189  -0.1078
C       -2.4591  -1.3200  -0.4666
C       -2.3607  -1.1123  1.0181
N       1.5048  -0.0017  -1.3529
N       1.0601  -1.4718  0.7214
N       -1.1081  -1.4025  -1.0436
N       -1.3993  -0.0448  1.3751
H       2.8432  -2.3808  0.3702
H       1.6527  -2.4585  -0.8841
H       -2.9463  -0.4809  -0.9188
H       -3.0472  -2.2033  -0.6774
H       1.7520  0.9515  -1.5865
H       1.2349  -0.4450  -2.2236
H       -1.8200  0.8725  1.4150
H       -1.0103  -0.2102  2.2896
H       -2.0298  -2.0166  1.5161
H       -3.3450  -0.8896  1.3978
H       0.5216  -2.2908  0.9344
H       1.4298  -1.1366  1.5995
H       3.2176  -1.1830  -1.5050
H       3.2034  -0.0659  -0.1472
H       -0.7600  -2.3368  -0.9914
H       -1.1363  -1.1422  -2.0080
