27

Co      0.0010  -0.0164  -0.0092
Cl      -1.0678  1.5432  -1.1676
Cl      1.1929  1.4824  1.3931
C       2.6992  -0.7317  -0.8368
C       2.1544  -1.9281  -0.0990
C       -2.6408  -1.3216  -0.4438
C       -2.4287  -1.1792  1.0432
N       1.5077  0.0683  -1.2493
N       1.0785  -1.3858  0.7925
N       -1.2431  -1.2518  -0.9953
N       -1.4700  -0.0546  1.1967
H       2.9075  -2.4323  0.4970
H       1.7237  -2.6585  -0.7744
H       -3.2226  -0.5132  -0.8548
H       -3.1005  -2.2633  -0.7122
H       1.7411  1.0515  -1.2688
H       1.2264  -0.1657  -2.1784
H       -1.9345  0.8242  0.9986
H       -1.1536  0.0255  2.1482
H       -1.9806  -2.0738  1.4595
H       -3.3444  -0.9829  1.5902
H       0.5629  -2.1430  1.2050
H       1.5214  -0.8865  1.5475
H       3.2972  -1.0076  -1.6953
H       3.3051  -0.1215  -0.1796
H       -0.8714  -2.1837  -1.0330
H       -1.2896  -0.9107  -1.9399
