27

Co      -0.0430  -0.0857  0.0070
Cl      -1.1265  1.7032  -1.2651
Cl      1.2142  1.5637  1.4308
C       2.7066  -0.7362  -0.8803
C       2.1696  -1.9220  -0.0772
C       -2.5358  -1.3234  -0.4367
C       -2.4468  -1.1688  1.0640
N       1.5679  0.0880  -1.3913
N       0.9898  -1.5936  0.8320
N       -1.1210  -1.3034  -0.9352
N       -1.4450  -0.0905  1.2956
H       2.9690  -2.3659  0.5094
H       1.8142  -2.6830  -0.7649
H       -3.0545  -0.4979  -0.8905
H       -3.0219  -2.2468  -0.7391
H       1.7779  1.0802  -1.3050
H       1.3565  -0.0763  -2.3639
H       -1.8634  0.8123  1.1852
H       -1.0855  -0.1035  2.2341
H       -2.0969  -2.0738  1.5381
H       -3.3960  -0.9156  1.5031
H       0.4794  -2.4487  1.0186
H       1.3285  -1.2462  1.7280
H       3.3113  -1.1281  -1.6888
H       3.3266  -0.0919  -0.2744
H       -0.7344  -2.2305  -0.9111
H       -1.1234  -1.0164  -1.8964
