27

Co      0.0184  0.0575  -0.0085
Cl      -1.0597  1.5775  -1.1934
Cl      1.1142  1.3581  1.3242
C       2.5287  -0.6365  -0.7913
C       2.0151  -1.8658  -0.1774
C       -2.4389  -1.2616  -0.4337
C       -2.3298  -1.0625  1.0169
N       1.4723  0.0377  -1.3388
N       1.0966  -1.5378  1.0454
N       -1.1138  -1.4217  -1.1423
N       -1.4353  -0.0471  1.3963
H       2.9363  -2.3309  0.1817
H       1.4943  -2.5781  -0.8032
H       -3.0066  -0.5050  -0.9661
H       -2.9967  -2.2062  -0.4756
H       1.6966  0.9992  -1.5354
H       1.1307  -0.3650  -2.2042
H       -1.8640  0.8677  1.3709
H       -1.0833  -0.1703  2.3232
H       -1.9291  -1.9987  1.3859
H       -3.3170  -0.9631  1.4453
H       0.6702  -2.3829  1.3842
H       1.6171  -1.1482  1.8089
H       3.4371  -0.7678  -1.4529
H       2.8487  -0.0440  0.0981
H       -0.8504  -2.3862  -1.1819
H       -1.2277  -1.0972  -2.0823
