27

Co      0.0048  0.0629  0.0197
Cl      -1.0989  1.6644  -1.2534
Cl      1.1114  1.3767  1.3079
C       2.6008  -0.6963  -0.7815
C       2.1415  -1.9777  -0.1029
C       -2.4743  -1.3189  -0.4646
C       -2.3853  -1.1253  1.0376
N       1.4179  0.0511  -1.2782
N       1.0841  -1.5822  0.8753
N       -1.0756  -1.3758  -0.9978
N       -1.3828  -0.0718  1.3672
H       2.9696  -2.4724  0.3783
H       1.7165  -2.6733  -0.8125
H       -2.9656  -0.4860  -0.9369
H       -3.0200  -2.2180  -0.7013
H       1.6551  1.0121  -1.4633
H       1.0911  -0.3244  -2.1567
H       -1.8129  0.8456  1.4159
H       -0.9743  -0.2293  2.2769
H       -2.0609  -2.0470  1.5066
H       -3.3519  -0.8810  1.4527
H       0.5405  -2.3801  1.1457
H       1.5121  -1.2265  1.7142
H       3.2862  -0.9058  -1.5901
H       3.1041  -0.0634  -0.0724
H       -0.6988  -2.2973  -0.8730
H       -1.0928  -1.1775  -1.9842
