27

Co      0.0705  -0.0102  0.0278
Cl      -1.1060  1.6296  -1.2273
Cl      1.1425  1.4305  1.3488
C       2.5688  -0.7306  -0.7721
C       2.0678  -1.8189  -0.0699
C       -2.5527  -1.3164  -0.4328
C       -2.4321  -1.1728  1.0474
N       1.5201  0.0711  -1.3402
N       1.1008  -1.4920  0.7904
N       -1.1832  -1.3368  -1.0046
N       -1.4948  -0.0586  1.3078
H       2.9043  -2.3358  0.3768
H       1.6567  -2.4967  -0.8066
H       -3.0553  -0.4607  -0.8351
H       -3.1048  -2.1999  -0.7147
H       1.8087  1.0258  -1.4722
H       1.2472  -0.2679  -2.2392
H       -1.9413  0.8286  1.1667
H       -1.1884  -0.0679  2.2593
H       -2.0552  -2.0665  1.5264
H       -3.4079  -0.9693  1.4667
H       0.5387  -2.3081  0.9837
H       1.4650  -1.1598  1.6728
H       3.1401  -1.2369  -1.5658
H       3.2549  -0.0963  -0.2145
H       -0.8500  -2.2780  -1.0287
H       -1.2360  -1.0168  -1.9547
