27

Co      -0.0276  -0.0660  0.0135
Cl      -1.1114  1.6668  -1.2496
Cl      1.1857  1.4988  1.3955
C       2.7645  -0.6862  -0.8423
C       2.1681  -2.0156  -0.0780
C       -2.5732  -1.3659  -0.4743
C       -2.4560  -1.1727  1.0751
N       1.4712  0.0963  -1.3635
N       1.0088  -1.4755  0.8543
N       -1.1244  -1.2326  -0.9420
N       -1.3872  -0.0714  1.2666
H       2.8374  -2.6722  0.4897
H       1.6667  -2.6166  -0.8419
H       -3.1073  -0.5246  -0.8898
H       -3.0200  -2.2884  -0.8408
H       1.6153  1.0968  -1.3799
H       1.2409  -0.1746  -2.3011
H       -1.8070  0.8412  1.1760
H       -1.0023  -0.0814  2.1958
H       -2.1307  -2.0690  1.5932
H       -3.3811  -0.8421  1.5397
H       0.4499  -2.2227  1.2226
H       1.4413  -1.0205  1.6428
H       3.3854  -0.9294  -1.6938
H       3.3063  -0.0152  -0.1944
H       -0.6915  -2.1405  -0.9550
H       -1.1125  -0.8866  -1.8824
