27

Co      0.0609  -0.0131  0.0180
Cl      -1.0894  1.6271  -1.2300
Cl      1.0969  1.3680  1.2957
C       2.5949  -0.6790  -0.8489
C       2.1032  -1.9205  -0.0570
C       -2.4441  -1.2837  -0.4538
C       -2.3937  -1.1259  1.0836
N       1.4000  0.1110  -1.2402
N       0.9736  -1.4621  0.8177
N       -1.0555  -1.3278  -1.0397
N       -1.4416  -0.0219  1.3858
H       2.9877  -2.3667  0.3816
H       1.6288  -2.6536  -0.6958
H       -2.8395  -0.4090  -0.9541
H       -3.1143  -2.1345  -0.6124
H       1.6924  1.0632  -1.4111
H       1.2550  -0.2293  -2.1882
H       -1.9523  0.8421  1.2913
H       -1.2103  -0.0494  2.3685
H       -1.9992  -1.9884  1.6082
H       -3.4198  -0.9828  1.4155
H       0.4425  -2.2658  1.1046
H       1.5056  -1.2341  1.6685
H       3.2831  -1.0704  -1.5909
H       3.1192  0.0208  -0.2181
H       -0.8548  -2.3175  -1.1127
H       -1.1829  -1.0446  -2.0007
