27

Co      0.0482  0.0322  0.0232
Cl      -1.0926  1.6207  -1.2230
Cl      1.0968  1.3558  1.2996
C       2.5661  -0.7066  -0.8102
C       2.0493  -1.8083  -0.1222
C       -2.4381  -1.2337  -0.4122
C       -2.3905  -1.1421  1.0498
N       1.5566  0.0462  -1.3687
N       1.0591  -1.5326  0.8704
N       -1.0791  -1.3719  -1.0086
N       -1.5383  -0.0499  1.4113
H       2.9394  -2.2273  0.3308
H       1.6525  -2.5626  -0.7854
H       -2.9140  -0.3882  -0.8637
H       -3.0219  -2.1127  -0.6330
H       1.8303  0.9995  -1.5173
H       1.2498  -0.3046  -2.2583
H       -1.9983  0.8300  1.2751
H       -1.2483  -0.0795  2.3669
H       -1.9699  -2.0579  1.4489
H       -3.3996  -1.0618  1.4435
H       0.5429  -2.3936  1.0345
H       1.4496  -1.2476  1.7601
H       3.2879  -1.0953  -1.5263
H       3.1055  -0.0981  -0.1141
H       -0.7894  -2.3282  -0.9815
H       -1.1379  -1.1044  -1.9729
