27

Co      0.0109  -0.0356  -0.0422
Cl      -1.0872  1.5899  -1.2031
Cl      1.1991  1.5057  1.4115
C       2.7455  -0.7092  -0.8700
C       2.1778  -2.0025  -0.1105
C       -2.5982  -1.3335  -0.4192
C       -2.5165  -1.1941  1.0967
N       1.5039  0.0744  -1.2990
N       1.0234  -1.4256  0.8508
N       -1.1673  -1.1923  -0.9510
N       -1.5153  -0.1016  1.2763
H       2.9114  -2.4964  0.5240
H       1.7353  -2.7416  -0.7667
H       -3.1911  -0.5369  -0.8502
H       -2.9981  -2.2944  -0.7434
H       1.6926  1.0699  -1.2826
H       1.2363  -0.1389  -2.2422
H       -1.9518  0.7903  1.0677
H       -1.1980  -0.0251  2.2337
H       -2.1570  -2.1003  1.5619
H       -3.4623  -0.9382  1.5503
H       0.4903  -2.1730  1.2669
H       1.4766  -0.9279  1.6022
H       3.4338  -0.8585  -1.7011
H       3.2328  -0.0880  -0.1283
H       -0.7687  -2.1153  -1.0409
H       -1.2364  -0.8098  -1.8810
