27

Co      -0.0082  -0.0622  -0.0074
Cl      -1.1192  1.6704  -1.2361
Cl      1.1845  1.4806  1.3974
C       2.6757  -0.7022  -0.7738
C       2.1123  -1.9243  -0.1465
C       -2.5193  -1.2663  -0.4274
C       -2.4029  -1.1742  1.0593
N       1.5212  0.0329  -1.3537
N       1.1104  -1.4786  0.8710
N       -1.1345  -1.3517  -1.0083
N       -1.5137  -0.0338  1.3309
H       2.7854  -2.5224  0.4658
H       1.6936  -2.5673  -0.9165
H       -3.0562  -0.3859  -0.7457
H       -3.0001  -2.1448  -0.8574
H       1.6366  1.0379  -1.3450
H       1.0888  -0.2275  -2.2301
H       -1.8968  0.8787  1.1005
H       -1.1140  0.0309  2.2532
H       -2.0031  -2.1039  1.4411
H       -3.3368  -0.9815  1.5590
H       0.5541  -2.2334  1.2115
H       1.4268  -0.8916  1.6452
H       3.2961  -0.8385  -1.6569
H       3.2340  -0.1435  -0.0410
H       -0.6884  -2.2546  -0.9768
H       -1.1058  -0.9833  -1.9402
