27

Co      0.0063  0.0276  0.0021
Cl      -1.0758  1.5840  -1.1918
Cl      1.1390  1.4037  1.3354
C       2.6280  -0.6988  -0.8125
C       2.1280  -1.9373  -0.0934
C       -2.5389  -1.2828  -0.4606
C       -2.3602  -1.1488  1.0380
N       1.4619  0.0931  -1.2835
N       1.0922  -1.5078  0.8894
N       -1.1593  -1.3604  -1.0432
N       -1.4475  -0.0106  1.3028
H       2.9400  -2.4533  0.3915
H       1.6692  -2.6311  -0.7862
H       -3.0258  -0.4175  -0.8739
H       -3.1172  -2.1567  -0.7122
H       1.7019  1.0645  -1.3701
H       1.1598  -0.2014  -2.1916
H       -1.9241  0.8700  1.2050
H       -1.0910  -0.0262  2.2345
H       -1.9007  -2.0442  1.4423
H       -3.3092  -1.0147  1.5413
H       0.5727  -2.2965  1.2202
H       1.5321  -1.0885  1.6868
H       3.2705  -0.9615  -1.6392
H       3.1887  -0.0774  -0.1348
H       -0.8197  -2.3005  -0.9863
H       -1.1905  -1.1007  -2.0123
