27

Co      -0.0326  -0.0169  -0.0661
Cl      -1.1003  1.6256  -1.2063
Cl      1.2373  1.5552  1.4512
C       2.7510  -0.7220  -0.8259
C       2.2398  -2.0940  -0.0768
C       -2.6172  -1.3351  -0.4631
C       -2.4657  -1.2272  1.0941
N       1.4498  0.1068  -1.2992
N       1.1059  -1.5464  0.8727
N       -1.1928  -1.3210  -1.0003
N       -1.5089  -0.0266  1.2989
H       2.9690  -2.6901  0.4746
H       1.7616  -2.7306  -0.8138
H       -3.0674  -0.4043  -0.8132
H       -3.1843  -2.1726  -0.8713
H       1.6548  1.1010  -1.2887
H       1.2213  -0.1149  -2.2503
H       -1.9983  0.8455  1.1872
H       -1.1026  -0.0012  2.2245
H       -2.0269  -2.0995  1.5554
H       -3.4092  -1.0311  1.5813
H       0.5688  -2.2811  1.3118
H       1.5458  -1.0145  1.6163
H       3.3667  -0.8823  -1.7065
H       3.2855  -0.0640  -0.1510
H       -0.7808  -2.2439  -0.9218
H       -1.2125  -1.0830  -1.9798
