27

Co      -0.0004  0.0156  -0.0208
Cl      -1.0992  1.6121  -1.2054
Cl      1.2146  1.5234  1.4245
C       2.7803  -0.7271  -0.8764
C       2.2101  -2.0207  -0.1252
C       -2.6280  -1.3206  -0.4452
C       -2.4699  -1.2136  1.0696
N       1.5337  0.0513  -1.3160
N       1.0412  -1.4848  0.8489
N       -1.2162  -1.3647  -1.0017
N       -1.5386  -0.0667  1.3028
H       2.9478  -2.5252  0.4977
H       1.7747  -2.7467  -0.7977
H       -3.1166  -0.4500  -0.8585
H       -3.1760  -2.2025  -0.7441
H       1.7381  1.0381  -1.3808
H       1.2314  -0.2241  -2.2279
H       -2.0195  0.8034  1.1334
H       -1.2122  -0.0215  2.2575
H       -2.0143  -2.1131  1.4654
H       -3.4086  -1.0678  1.5819
H       0.4828  -2.2507  1.1836
H       1.4767  -1.0642  1.6477
H       3.4766  -0.8787  -1.6987
H       3.2625  -0.0962  -0.1327
H       -0.8665  -2.3095  -0.9704
H       -1.2450  -1.0942  -1.9692
