27

Co      0.0276  0.0710  -0.0102
Cl      -1.0737  1.5766  -1.2009
Cl      1.1425  1.4049  1.3423
C       2.6040  -0.7456  -0.7728
C       2.1310  -1.9046  -0.0854
C       -2.5125  -1.3178  -0.4358
C       -2.4384  -1.1610  1.0648
N       1.5032  0.0566  -1.2937
N       1.1467  -1.5144  0.8046
N       -1.1718  -1.3849  -1.0939
N       -1.5452  -0.0247  1.4340
H       2.9706  -2.4003  0.3830
H       1.7172  -2.5955  -0.8001
H       -3.0017  -0.4523  -0.8447
H       -3.1128  -2.1803  -0.6840
H       1.8110  1.0033  -1.4698
H       1.2019  -0.3039  -2.1808
H       -2.0127  0.8623  1.4187
H       -1.1724  -0.1451  2.3591
H       -2.0601  -2.0486  1.5511
H       -3.4534  -1.0075  1.4209
H       0.5914  -2.3076  1.0672
H       1.5395  -1.1295  1.6435
H       3.2093  -1.1212  -1.5845
H       3.2297  -0.1200  -0.1526
H       -0.8260  -2.3228  -1.1031
H       -1.2735  -1.0879  -2.0488
