27

Co      0.0262  0.0221  0.0060
Cl      -1.0848  1.5998  -1.2209
Cl      1.1040  1.3447  1.2900
C       2.6100  -0.6919  -0.8365
C       2.1346  -1.9502  -0.0587
C       -2.4683  -1.3158  -0.4579
C       -2.3917  -1.0999  1.0795
N       1.4262  0.1301  -1.2209
N       1.1052  -1.4913  0.9165
N       -1.1224  -1.3277  -1.1530
N       -1.4576  0.0133  1.4234
H       3.0558  -2.4509  0.2736
H       1.5740  -2.6321  -0.6912
H       -2.9317  -0.4827  -0.9708
H       -3.1253  -2.1966  -0.5365
H       1.7480  1.0785  -1.3660
H       1.2948  -0.1854  -2.1799
H       -1.9747  0.8850  1.4260
H       -1.1696  -0.0990  2.3828
H       -1.9883  -1.9518  1.6164
H       -3.4306  -0.9735  1.3966
H       0.6505  -2.2977  1.3185
H       1.6994  -1.1657  1.6839
H       3.3027  -1.0666  -1.5853
H       3.1407  -0.0104  -0.1921
H       -0.9092  -2.3142  -1.3131
H       -1.3102  -0.9653  -2.0842
