27

Co      0.0078  0.0258  0.0004
Cl      -1.0469  1.5475  -1.1887
Cl      1.1096  1.3650  1.3163
C       2.5520  -0.6884  -0.8248
C       2.0290  -1.8038  -0.0996
C       -2.4173  -1.2844  -0.4275
C       -2.3968  -1.0870  1.0576
N       1.5234  0.0677  -1.3455
N       1.0424  -1.4849  0.8762
N       -1.0786  -1.2866  -1.0775
N       -1.4739  -0.0467  1.4199
H       3.0092  -2.2324  0.2142
H       1.5301  -2.5351  -0.7148
H       -2.9317  -0.5168  -0.9984
H       -3.0075  -2.2184  -0.4543
H       1.8648  1.0048  -1.5397
H       1.4320  -0.3109  -2.2945
H       -1.9716  0.8330  1.4306
H       -1.2030  -0.1811  2.3797
H       -2.0182  -1.9665  1.5651
H       -3.4476  -0.9780  1.3514
H       0.6383  -2.3652  1.1755
H       1.5983  -1.2354  1.6994
H       3.3633  -1.1872  -1.4332
H       3.0210  -0.0058  -0.1408
H       -0.8678  -2.2732  -1.1985
H       -1.2600  -0.9743  -2.0238
