27

Co      0.0495  -0.0042  0.0106
Cl      -1.0852  1.6127  -1.2093
Cl      1.1299  1.4109  1.3439
C       2.5545  -0.6865  -0.7747
C       2.0357  -1.8330  -0.0814
C       -2.4766  -1.2717  -0.4458
C       -2.3767  -1.1524  1.0530
N       1.4908  0.0892  -1.3919
N       1.0614  -1.5288  0.8628
N       -1.1179  -1.3963  -1.0496
N       -1.4921  -0.0106  1.3788
H       2.8724  -2.3833  0.3262
H       1.5833  -2.4756  -0.8260
H       -2.9101  -0.3675  -0.8391
H       -3.1133  -2.1020  -0.7278
H       1.7455  1.0480  -1.5410
H       1.2229  -0.2808  -2.2863
H       -1.9545  0.8714  1.2672
H       -1.1618  -0.0430  2.3195
H       -1.9600  -2.0414  1.5045
H       -3.3722  -1.0226  1.4583
H       0.5074  -2.3505  1.0538
H       1.4410  -1.2087  1.7414
H       3.2020  -1.1261  -1.5299
H       3.1478  -0.0371  -0.1583
H       -0.8123  -2.3478  -1.0299
H       -1.1631  -1.1127  -2.0102
