27

Co      0.0028  -0.0069  0.0126
Cl      -1.1028  1.6288  -1.2285
Cl      1.1185  1.3646  1.3121
C       2.6535  -0.6861  -0.8070
C       2.1042  -1.9188  -0.1036
C       -2.4770  -1.2775  -0.4444
C       -2.3867  -1.1336  1.0694
N       1.5105  0.0971  -1.3405
N       1.1319  -1.5004  0.9533
N       -1.1136  -1.3197  -1.0827
N       -1.4990  0.0078  1.3990
H       2.9075  -2.5210  0.3020
H       1.5620  -2.5354  -0.8180
H       -2.9794  -0.4188  -0.8557
H       -3.0431  -2.1553  -0.7021
H       1.7280  1.0724  -1.4104
H       1.2450  -0.2043  -2.2594
H       -1.9609  0.8958  1.2962
H       -1.1508  -0.0259  2.3368
H       -1.9620  -2.0225  1.5171
H       -3.3803  -1.0062  1.4796
H       0.6489  -2.2960  1.3260
H       1.6051  -1.0486  1.7160
H       3.3332  -0.9780  -1.5949
H       3.1888  -0.0633  -0.1163
H       -0.7800  -2.2626  -1.1515
H       -1.1856  -0.9410  -2.0085
