27

Co      -0.0063  -0.0340  0.0013
Cl      -1.1100  1.6339  -1.2362
Cl      1.1813  1.4749  1.3827
C       2.8087  -0.7169  -0.8641
C       2.2047  -2.0269  -0.0727
C       -2.5805  -1.3592  -0.4549
C       -2.5017  -1.1969  1.1080
N       1.5199  0.1059  -1.3468
N       1.0502  -1.4474  0.8442
N       -1.1621  -1.2530  -1.0161
N       -1.5150  -0.0344  1.3629
H       2.8699  -2.6711  0.5142
H       1.6996  -2.6403  -0.8174
H       -3.0960  -0.4874  -0.8347
H       -3.0762  -2.2487  -0.8317
H       1.6980  1.0990  -1.3618
H       1.2701  -0.1484  -2.2842
H       -1.9657  0.8558  1.2367
H       -1.1571  -0.0313  2.3059
H       -2.1403  -2.0739  1.6311
H       -3.4696  -0.9435  1.5172
H       0.4643  -2.1789  1.2140
H       1.4789  -0.9828  1.6277
H       3.3939  -0.9755  -1.7391
H       3.3942  -0.0596  -0.2341
H       -0.7541  -2.1730  -1.1211
H       -1.2103  -0.8357  -1.9330
