27

Co      0.0560  0.0524  0.0565
Cl      -1.0723  1.5899  -1.2205
Cl      1.0729  1.3104  1.2614
C       2.6249  -0.6796  -0.8091
C       2.0852  -1.9032  -0.0989
C       -2.4716  -1.3190  -0.4616
C       -2.3842  -1.1002  1.0465
N       1.4397  0.0639  -1.2719
N       1.0308  -1.4140  0.8321
N       -1.1083  -1.3639  -1.0949
N       -1.4201  -0.0280  1.4076
H       2.8438  -2.4422  0.4304
H       1.6222  -2.5819  -0.8038
H       -2.9948  -0.5033  -0.9202
H       -3.0254  -2.2258  -0.6506
H       1.6592  1.0224  -1.5002
H       1.0637  -0.3502  -2.1258
H       -1.8451  0.8846  1.3694
H       -1.0875  -0.1386  2.3445
H       -2.0508  -2.0086  1.5337
H       -3.3704  -0.8810  1.4314
H       0.4214  -2.1728  1.0894
H       1.4646  -1.0807  1.6750
H       3.2679  -0.9450  -1.6347
H       3.1798  -0.0555  -0.1330
H       -0.7869  -2.3033  -1.1796
H       -1.1853  -0.9738  -2.0166
