27

Co      -0.0004  0.0103  -0.0209
Cl      -1.0818  1.5986  -1.1890
Cl      1.1947  1.4983  1.4108
C       2.6787  -0.7153  -0.8150
C       2.1375  -1.9432  -0.1169
C       -2.5664  -1.2788  -0.4510
C       -2.4078  -1.2016  1.0523
N       1.5041  0.0441  -1.3372
N       1.0486  -1.4973  0.8131
N       -1.1687  -1.3909  -0.9894
N       -1.5142  -0.0399  1.3042
H       2.9125  -2.4621  0.4313
H       1.7175  -2.6372  -0.8306
H       -2.9981  -0.3662  -0.8399
H       -3.1766  -2.1156  -0.7695
H       1.7312  1.0191  -1.4541
H       1.2275  -0.2860  -2.2395
H       -2.0051  0.8255  1.1529
H       -1.1778  -0.0069  2.2497
H       -1.9303  -2.0960  1.4416
H       -3.3585  -1.0927  1.5563
H       0.5037  -2.2834  1.1115
H       1.4576  -1.0984  1.6362
H       3.3624  -0.9756  -1.6042
H       3.1933  -0.0722  -0.1163
H       -0.8325  -2.3382  -0.8710
H       -1.1746  -1.1991  -1.9830
