27

Co      -0.0157  -0.0391  -0.0007
Cl      -1.0900  1.5980  -1.1989
Cl      1.1963  1.4968  1.4018
C       2.6693  -0.7146  -0.8228
C       2.1269  -1.9031  -0.1042
C       -2.6053  -1.3146  -0.4389
C       -2.3945  -1.1540  1.0296
N       1.5512  0.1024  -1.3646
N       1.1124  -1.5191  0.9282
N       -1.2352  -1.3271  -1.0473
N       -1.4590  -0.0343  1.2486
H       2.8418  -2.4495  0.4985
H       1.7227  -2.5986  -0.8344
H       -3.2404  -0.5089  -0.7895
H       -3.0174  -2.2606  -0.7860
H       1.7055  1.1064  -1.2577
H       1.1171  -0.0628  -2.2669
H       -1.8353  0.8866  1.0689
H       -1.0299  -0.0024  2.1537
H       -1.9893  -2.0822  1.4080
H       -3.2910  -0.9185  1.5987
H       0.5672  -2.3047  1.2123
H       1.4039  -0.9569  1.7303
H       3.2141  -0.9412  -1.7419
H       3.3315  -0.1669  -0.1600
H       -0.7665  -2.2199  -1.0711
H       -1.2200  -0.9054  -1.9630
