27

Co      -0.0379  -0.0642  -0.0569
Cl      -1.1021  1.6281  -1.2116
Cl      1.2321  1.5423  1.4477
C       2.7138  -0.7280  -0.7620
C       2.1810  -2.0152  -0.0855
C       -2.5979  -1.3391  -0.4492
C       -2.4782  -1.2185  1.0925
N       1.4641  0.0662  -1.2979
N       1.1519  -1.4566  0.8007
N       -1.1740  -1.2147  -0.9559
N       -1.4959  -0.0461  1.2620
H       2.8968  -2.6779  0.4191
H       1.6798  -2.5923  -0.8669
H       -3.1058  -0.4446  -0.7940
H       -3.0861  -2.2157  -0.8784
H       1.6720  1.0577  -1.3093
H       1.2865  -0.1913  -2.2517
H       -1.9608  0.8382  1.1263
H       -1.1024  -0.0033  2.1914
H       -2.0880  -2.0916  1.5997
H       -3.4273  -0.9656  1.5447
H       0.6609  -2.1828  1.3244
H       1.6094  -0.8494  1.4958
H       3.3138  -0.9906  -1.6169
H       3.2850  -0.0706  -0.1243
H       -0.7341  -2.1259  -0.9323
H       -1.2040  -0.9228  -1.9160
