27

Co      -0.0722  -0.0582  -0.0109
Cl      -1.1074  1.6586  -1.2282
Cl      1.1943  1.4889  1.4052
C       2.6952  -0.7072  -0.7781
C       2.1241  -1.9269  -0.1475
C       -2.5108  -1.2653  -0.4366
C       -2.3795  -1.1624  1.0448
N       1.5551  0.0376  -1.3919
N       1.1310  -1.5247  0.9039
N       -1.1198  -1.3142  -0.9821
N       -1.4767  -0.0317  1.3097
H       2.8108  -2.5405  0.4327
H       1.6948  -2.5573  -0.9228
H       -3.0769  -0.4097  -0.7729
H       -2.9523  -2.1691  -0.8583
H       1.6701  1.0470  -1.3310
H       1.1686  -0.1891  -2.2917
H       -1.8618  0.8871  1.1516
H       -1.0234  -0.0115  2.2091
H       -1.9700  -2.0950  1.4159
H       -3.2999  -0.9659  1.5715
H       0.6377  -2.3082  1.2741
H       1.4543  -0.9047  1.6594
H       3.3272  -0.8684  -1.6452
H       3.2505  -0.1451  -0.0476
H       -0.6308  -2.2020  -0.8913
H       -1.0634  -0.9892  -1.9273
