27

Co      -0.0141  -0.0685  0.0009
Cl      -1.1204  1.6643  -1.2432
Cl      1.1987  1.5173  1.3995
C       2.7883  -0.7295  -0.8757
C       2.2358  -2.0425  -0.0599
C       -2.5952  -1.3401  -0.4610
C       -2.4642  -1.2022  1.0927
N       1.4738  0.1102  -1.2732
N       1.0146  -1.4621  0.7895
N       -1.1575  -1.2714  -0.9665
N       -1.4633  -0.0397  1.2809
H       2.9089  -2.6008  0.6038
H       1.8094  -2.7326  -0.7810
H       -3.0790  -0.4498  -0.8354
H       -3.1065  -2.2177  -0.8579
H       1.6492  1.1113  -1.2213
H       1.2151  -0.0708  -2.2297
H       -1.9156  0.8445  1.1049
H       -1.1180  0.0241  2.2299
H       -2.0746  -2.0811  1.5858
H       -3.3992  -0.9432  1.5664
H       0.4245  -2.1966  1.1439
H       1.4125  -1.0007  1.5944
H       3.3125  -0.9693  -1.8034
H       3.4213  -0.0808  -0.2741
H       -0.7540  -2.1931  -0.9855
H       -1.1647  -0.9310  -1.9121
