27

Co      -0.0141  -0.0621  -0.0025
Cl      -1.1114  1.6703  -1.2462
Cl      1.1927  1.5173  1.4025
C       2.6833  -0.7350  -0.8410
C       2.1726  -1.9482  -0.0947
C       -2.5308  -1.3133  -0.4344
C       -2.4427  -1.1667  1.0676
N       1.4887  0.0500  -1.2704
N       1.0115  -1.4856  0.7578
N       -1.1178  -1.2932  -0.9486
N       -1.4495  -0.0854  1.2923
H       2.9406  -2.3857  0.5441
H       1.8218  -2.7185  -0.7765
H       -3.0468  -0.4808  -0.8726
H       -3.0229  -2.2294  -0.7403
H       1.6992  1.0366  -1.2699
H       1.2229  -0.1695  -2.2117
H       -1.8734  0.8142  1.1475
H       -1.1144  -0.0699  2.2399
H       -2.0941  -2.0723  1.5423
H       -3.3953  -0.9147  1.5013
H       0.4739  -2.2772  1.0525
H       1.3912  -1.0705  1.5946
H       3.2843  -1.0142  -1.6895
H       3.2761  -0.1081  -0.1947
H       -0.7424  -2.2224  -0.9346
H       -1.1456  -1.0024  -1.9086
