27

Co      0.0170  -0.0092  -0.0117
Cl      -1.0573  1.5779  -1.1956
Cl      1.1270  1.4050  1.3331
C       2.5923  -0.6839  -0.8152
C       2.0984  -1.9186  -0.0841
C       -2.4405  -1.2781  -0.4453
C       -2.3770  -1.1157  1.0699
N       1.4135  0.0906  -1.2655
N       1.0015  -1.4607  0.8192
N       -1.0730  -1.3412  -1.0692
N       -1.4458  -0.0117  1.3954
H       2.8882  -2.3808  0.4820
H       1.6958  -2.6549  -0.7665
H       -2.9260  -0.4234  -0.8728
H       -3.0153  -2.1545  -0.6989
H       1.6321  1.0629  -1.3510
H       1.1026  -0.2031  -2.1757
H       -1.8813  0.8880  1.3053
H       -1.0967  -0.0582  2.3291
H       -2.0142  -2.0110  1.5499
H       -3.3710  -0.9270  1.4478
H       0.4357  -2.2329  1.1105
H       1.4030  -1.0629  1.6487
H       3.2195  -0.9385  -1.6519
H       3.1537  -0.0574  -0.1472
H       -0.7416  -2.2808  -1.1066
H       -1.1532  -1.0053  -2.0119
