27

Co      0.0439  -0.0191  0.0331
Cl      -1.0984  1.6211  -1.2270
Cl      1.1029  1.3704  1.2927
C       2.6346  -0.6951  -0.8820
C       2.1235  -1.9065  -0.0431
C       -2.5001  -1.2886  -0.4551
C       -2.3930  -1.1379  1.0721
N       1.4669  0.1435  -1.2720
N       1.0047  -1.4865  0.8655
N       -1.1053  -1.2880  -1.0207
N       -1.4455  -0.0166  1.3260
H       3.0207  -2.3631  0.3675
H       1.6285  -2.6401  -0.6713
H       -2.9328  -0.4338  -0.9525
H       -3.1298  -2.1648  -0.6112
H       1.7719  1.1012  -1.3562
H       1.3492  -0.1246  -2.2477
H       -1.9712  0.8379  1.2059
H       -1.2177  -0.0094  2.3104
H       -1.9498  -1.9963  1.5671
H       -3.3937  -1.0121  1.4697
H       0.5105  -2.3169  1.1503
H       1.5379  -1.2503  1.7128
H       3.2875  -1.1591  -1.6322
H       3.2178  -0.0031  -0.2904
H       -0.8882  -2.2734  -1.1018
H       -1.2133  -0.9876  -1.9771
