27

Co      0.0106  0.0689  -0.0043
Cl      -1.0654  1.5571  -1.1814
Cl      1.1286  1.3823  1.3256
C       2.6318  -0.7070  -0.8522
C       2.1148  -1.8952  -0.1324
C       -2.5075  -1.2541  -0.4276
C       -2.3805  -1.1376  1.0399
N       1.5451  0.0657  -1.3199
N       1.0794  -1.5281  0.9325
N       -1.1535  -1.3837  -1.0684
N       -1.5265  -0.0319  1.3746
H       2.9897  -2.3032  0.3618
H       1.6874  -2.6758  -0.7508
H       -3.0274  -0.4360  -0.8927
H       -3.0752  -2.1587  -0.5934
H       1.8083  1.0292  -1.4182
H       1.2147  -0.2299  -2.2193
H       -2.0057  0.8442  1.2687
H       -1.2013  -0.0668  2.3173
H       -1.9075  -2.0509  1.3961
H       -3.3589  -1.0809  1.5098
H       0.5900  -2.3647  1.2020
H       1.5213  -1.1644  1.7542
H       3.3771  -0.9459  -1.6071
H       3.1199  -0.1139  -0.0905
H       -0.8532  -2.3390  -1.0509
H       -1.2281  -1.1069  -2.0298
