27

Co      0.0035  -0.0118  0.0035
Cl      -1.0800  1.5890  -1.1996
Cl      1.1363  1.3933  1.3368
C       2.6457  -0.6792  -0.7965
C       2.0873  -1.9113  -0.1116
C       -2.5136  -1.2869  -0.4500
C       -2.3834  -1.1376  1.0549
N       1.4838  0.0784  -1.3215
N       1.1018  -1.4433  0.9054
N       -1.1367  -1.2938  -1.0508
N       -1.4631  -0.0134  1.3254
H       2.8656  -2.5121  0.3363
H       1.5600  -2.5372  -0.8282
H       -3.0409  -0.4460  -0.8646
H       -3.0435  -2.1859  -0.7075
H       1.6907  1.0562  -1.4135
H       1.2140  -0.2433  -2.2317
H       -1.9201  0.8770  1.1999
H       -1.1207  -0.0154  2.2641
H       -1.9589  -2.0323  1.4922
H       -3.3486  -0.9792  1.5119
H       0.6110  -2.2179  1.3125
H       1.5808  -0.9679  1.6517
H       3.3343  -0.9441  -1.5860
H       3.1623  -0.0535  -0.0916
H       -0.7922  -2.2324  -1.0977
H       -1.1945  -0.9359  -1.9848
