27

Co      0.0032  0.0238  0.0195
Cl      -1.0734  1.6069  -1.2179
Cl      1.1025  1.3657  1.2951
C       2.5383  -0.7091  -0.8043
C       2.1046  -1.8844  -0.0393
C       -2.4523  -1.2996  -0.4679
C       -2.3519  -1.1078  1.0435
N       1.4230  0.1113  -1.2509
N       1.0658  -1.5494  0.8234
N       -1.0790  -1.3191  -1.0276
N       -1.3809  -0.0212  1.3427
H       3.0635  -2.3254  0.2991
H       1.6477  -2.6046  -0.7003
H       -2.8853  -0.4574  -0.9873
H       -3.0982  -2.1763  -0.5872
H       1.7773  1.0500  -1.4108
H       1.3245  -0.2188  -2.2125
H       -1.8956  0.8534  1.3923
H       -1.0661  -0.1544  2.2861
H       -1.9563  -1.9717  1.5692
H       -3.3633  -0.9474  1.4046
H       0.6108  -2.4020  1.1077
H       1.5821  -1.3019  1.6749
H       3.1820  -1.2295  -1.5372
H       3.1427  -0.0102  -0.2409
H       -0.8275  -2.2887  -0.9930
H       -1.1825  -1.1284  -2.0181
