27

Co      0.0025  -0.0072  -0.0016
Cl      -1.0598  1.5804  -1.1981
Cl      1.1295  1.4099  1.3380
C       2.5517  -0.6952  -0.8170
C       2.0652  -1.8480  -0.0418
C       -2.4341  -1.2921  -0.4580
C       -2.3710  -1.1133  1.0655
N       1.4658  0.1227  -1.3379
N       1.0300  -1.5364  0.8399
N       -1.0824  -1.3351  -1.0769
N       -1.4433  0.0011  1.4010
H       3.0102  -2.3270  0.2795
H       1.5818  -2.5348  -0.7162
H       -2.8492  -0.4276  -0.9582
H       -3.1160  -2.1443  -0.5864
H       1.8053  1.0653  -1.4805
H       1.4031  -0.2128  -2.3084
H       -1.9608  0.8690  1.4185
H       -1.1407  -0.1164  2.3510
H       -1.9659  -1.9640  1.6039
H       -3.4109  -0.9913  1.3794
H       0.5714  -2.3975  1.0961
H       1.5311  -1.2988  1.7024
H       3.2280  -1.2658  -1.5045
H       3.1353  0.0206  -0.2534
H       -0.8564  -2.3173  -1.1229
H       -1.2179  -1.0795  -2.0455
