27

Co      -0.0025  -0.0030  0.0084
Cl      -1.1033  1.6230  -1.2296
Cl      1.1746  1.4619  1.3693
C       2.7876  -0.7215  -0.8483
C       2.2223  -2.0509  -0.0733
C       -2.6206  -1.3761  -0.4679
C       -2.4841  -1.1931  1.0813
N       1.4725  0.0929  -1.2801
N       1.0658  -1.4401  0.8215
N       -1.1867  -1.2479  -0.9840
N       -1.4510  -0.0583  1.2874
H       2.8935  -2.6680  0.5337
H       1.7389  -2.6899  -0.8093
H       -3.1618  -0.5296  -0.8653
H       -3.0834  -2.2916  -0.8232
H       1.6622  1.0822  -1.3295
H       1.1900  -0.1761  -2.2024
H       -1.8989  0.8386  1.1902
H       -1.0794  -0.0662  2.2223
H       -2.1276  -2.0816  1.5886
H       -3.4172  -0.8996  1.5502
H       0.4756  -2.1570  1.2193
H       1.5081  -0.9641  1.5923
H       3.3587  -0.9299  -1.7532
H       3.3751  -0.0733  -0.2091
H       -0.7594  -2.1584  -1.0207
H       -1.2107  -0.8893  -1.9212
