27

Co      0.0018  0.0391  -0.0012
Cl      -1.0665  1.5886  -1.2057
Cl      1.1383  1.4154  1.3488
C       2.6643  -0.6924  -0.8282
C       2.1111  -1.9374  -0.0950
C       -2.4885  -1.3148  -0.4604
C       -2.4378  -1.1578  1.0720
N       1.4748  0.0494  -1.3390
N       1.0018  -1.4758  0.8063
N       -1.0794  -1.2973  -0.9773
N       -1.4590  -0.0677  1.3725
H       2.9702  -2.4607  0.3183
H       1.6077  -2.6070  -0.7749
H       -2.9152  -0.4613  -0.9773
H       -3.1027  -2.1916  -0.6359
H       1.7681  0.9978  -1.5894
H       1.3773  -0.3808  -2.2705
H       -1.9816  0.8002  1.3757
H       -1.1678  -0.1629  2.3320
H       -2.0487  -2.0319  1.5851
H       -3.4502  -1.0015  1.4267
H       0.5082  -2.2879  1.1339
H       1.5542  -1.2206  1.6299
H       3.4524  -1.0751  -1.4940
H       3.0943  0.0318  -0.1412
H       -0.8153  -2.2679  -0.9471
H       -1.1709  -1.1072  -1.9677
