27

Co      -0.0012  -0.0380  -0.0110
Cl      -1.0785  1.6015  -1.1995
Cl      1.1879  1.4919  1.3999
C       2.6342  -0.6963  -0.8050
C       2.1160  -1.9311  -0.1048
C       -2.5640  -1.3188  -0.4537
C       -2.3948  -1.1444  1.0404
N       1.4441  0.0617  -1.2709
N       1.0488  -1.4489  0.8250
N       -1.1713  -1.3119  -1.0127
N       -1.4072  -0.0592  1.2429
H       2.8918  -2.4458  0.4426
H       1.6795  -2.6342  -0.8024
H       -3.1064  -0.4988  -0.8892
H       -3.0681  -2.2409  -0.7020
H       1.6509  1.0447  -1.3327
H       1.1658  -0.2210  -2.1884
H       -1.8407  0.8419  1.1146
H       -1.0590  -0.0487  2.1805
H       -2.0069  -2.0479  1.4863
H       -3.3264  -0.9121  1.5327
H       0.5348  -2.2202  1.2000
H       1.4871  -0.9862  1.6023
H       3.2861  -0.9369  -1.6288
H       3.1740  -0.0687  -0.1163
H       -0.8153  -2.2470  -1.0167
H       -1.2125  -1.0025  -1.9656
