27

Co      -0.0492  -0.0173  -0.0350
Cl      -1.0776  1.6152  -1.2100
Cl      1.2210  1.5463  1.4364
C       2.6642  -0.7351  -0.8290
C       2.1801  -1.9695  -0.0945
C       -2.5378  -1.3337  -0.4476
C       -2.4228  -1.1477  1.0558
N       1.4808  0.0601  -1.2848
N       1.0518  -1.5416  0.8064
N       -1.1608  -1.3569  -1.0395
N       -1.4449  -0.0598  1.3302
H       2.9847  -2.4114  0.4910
H       1.8110  -2.7252  -0.7752
H       -3.0627  -0.5080  -0.8979
H       -3.0708  -2.2439  -0.6891
H       1.7165  1.0398  -1.3007
H       1.2217  -0.1729  -2.2234
H       -1.8777  0.8455  1.3034
H       -1.0405  -0.1419  2.2476
H       -2.0646  -2.0467  1.5302
H       -3.3844  -0.9190  1.4812
H       0.5434  -2.3436  1.1192
H       1.4407  -1.1027  1.6252
H       3.2914  -0.9945  -1.6632
H       3.2325  -0.1037  -0.1642
H       -0.7832  -2.2867  -1.0131
H       -1.2202  -1.0862  -2.0046
