27

Co      0.0004  -0.0156  0.0208
Cl      -1.0776  1.6118  -1.2256
Cl      1.0997  1.3553  1.2965
C       2.5560  -0.6895  -0.7882
C       2.0640  -1.8584  -0.0575
C       -2.4270  -1.3037  -0.4573
C       -2.3750  -1.0967  1.0604
N       1.4449  0.0966  -1.2888
N       1.0754  -1.4849  0.8394
N       -1.0564  -1.2524  -1.0352
N       -1.3965  -0.0239  1.3652
H       2.9891  -2.3842  0.2439
H       1.5384  -2.5107  -0.7423
H       -2.9005  -0.4859  -0.9780
H       -3.0245  -2.2055  -0.5825
H       1.7662  1.0417  -1.4542
H       1.3787  -0.2607  -2.2527
H       -1.8916  0.8604  1.3872
H       -1.0958  -0.1436  2.3157
H       -2.0145  -1.9598  1.6190
H       -3.4026  -0.9119  1.3752
H       0.6491  -2.3235  1.1999
H       1.6309  -1.1813  1.6398
H       3.2458  -1.2121  -1.4840
H       3.1163  0.0136  -0.1976
H       -0.8000  -2.2206  -1.1043
H       -1.1865  -0.9635  -1.9907
