27

Co      0.0000  0.0052  0.0001
Cl      -1.1057  1.6254  -1.2320
Cl      1.1771  1.4644  1.3742
C       2.7674  -0.7224  -0.8824
C       2.2073  -2.0124  -0.1087
C       -2.5891  -1.3493  -0.4387
C       -2.4823  -1.1671  1.0777
N       1.5281  0.0766  -1.2926
N       1.0622  -1.4770  0.8867
N       -1.1883  -1.2914  -1.0330
N       -1.4988  -0.0722  1.3371
H       2.9561  -2.5178  0.4893
H       1.7479  -2.7382  -0.7666
H       -3.1634  -0.5517  -0.8915
H       -3.0543  -2.2954  -0.6878
H       1.7318  1.0634  -1.3170
H       1.2228  -0.1623  -2.2173
H       -1.9382  0.8256  1.2227
H       -1.1567  -0.0903  2.2830
H       -2.1142  -2.0717  1.5387
H       -3.4375  -0.9400  1.5223
H       0.5223  -2.2454  1.2434
H       1.5139  -1.0364  1.6689
H       3.4322  -0.8941  -1.7266
H       3.2880  -0.1062  -0.1611
H       -0.8150  -2.2227  -1.1276
H       -1.2612  -0.8991  -1.9571
