27

Co      0.0022  0.0227  0.0228
Cl      -1.0821  1.5959  -1.2292
Cl      1.1068  1.3564  1.2955
C       2.6769  -0.7132  -0.8325
C       2.1339  -1.9231  -0.0876
C       -2.4886  -1.3345  -0.4342
C       -2.4546  -1.1234  1.0741
N       1.5203  0.0837  -1.3142
N       1.0815  -1.4650  0.8667
N       -1.1056  -1.2241  -1.0281
N       -1.4658  -0.0581  1.3950
H       2.9162  -2.4473  0.4293
H       1.6729  -2.6165  -0.7758
H       -3.0916  -0.5660  -0.8985
H       -2.9203  -2.2996  -0.6734
H       1.7554  1.0532  -1.3871
H       1.2323  -0.2047  -2.2312
H       -1.8848  0.8572  1.3627
H       -1.0998  -0.1611  2.3229
H       -2.1504  -2.0298  1.5920
H       -3.4458  -0.8628  1.4334
H       0.5534  -2.2524  1.1889
H       1.5155  -1.0464  1.6694
H       3.3068  -1.0266  -1.6546
H       3.2628  -0.0958  -0.1768
H       -0.7076  -2.1389  -1.1433
H       -1.1941  -0.8051  -1.9403
