27

Co      0.0258  0.0389  -0.0184
Cl      -1.0693  1.5925  -1.1973
Cl      1.1355  1.4037  1.3433
C       2.5133  -0.7066  -0.7731
C       2.0696  -1.8551  -0.1281
C       -2.4428  -1.2511  -0.4243
C       -2.3534  -1.1109  1.0373
N       1.4650  0.0355  -1.2642
N       1.1037  -1.5318  0.8606
N       -1.1197  -1.4409  -1.1083
N       -1.4972  -0.0269  1.4095
H       2.9840  -2.2432  0.3265
H       1.6813  -2.6265  -0.7767
H       -2.9254  -0.4119  -0.8843
H       -3.0726  -2.1245  -0.5751
H       1.7498  0.9875  -1.4240
H       1.1389  -0.3096  -2.1499
H       -1.9503  0.8642  1.3431
H       -1.1580  -0.1106  2.3446
H       -1.9396  -2.0207  1.4451
H       -3.3614  -1.0229  1.4274
H       0.6150  -2.3656  1.1264
H       1.5229  -1.1590  1.6901
H       3.2327  -0.9873  -1.5251
H       3.0290  -0.1095  -0.0434
H       -0.8447  -2.4031  -1.0868
H       -1.2251  -1.1820  -2.0747
