27

Co      0.0556  0.0529  0.0371
Cl      -1.0723  1.5857  -1.2164
Cl      1.0729  1.3149  1.2655
C       2.5243  -0.6971  -0.7973
C       2.0423  -1.8115  -0.1095
C       -2.4610  -1.2888  -0.4218
C       -2.3869  -1.0934  1.0265
N       1.4988  0.0570  -1.2988
N       1.0754  -1.4972  0.8793
N       -1.1039  -1.3044  -1.0249
N       -1.4330  -0.0808  1.3530
H       2.9417  -2.2152  0.3421
H       1.6385  -2.5833  -0.7539
H       -3.0561  -0.5446  -0.9288
H       -2.9323  -2.2594  -0.5588
H       1.7804  1.0064  -1.4587
H       1.1595  -0.2923  -2.1798
H       -1.8488  0.8335  1.2976
H       -1.1119  -0.1801  2.2902
H       -2.0541  -2.0243  1.4720
H       -3.3715  -0.8901  1.4247
H       0.5657  -2.3398  1.0934
H       1.4942  -1.1792  1.7382
H       3.2193  -1.0557  -1.5496
H       3.0855  -0.1046  -0.1051
H       -0.7777  -2.2408  -1.0681
H       -1.1904  -0.9675  -1.9646
