27

Co      0.0258  0.0468  -0.0179
Cl      -1.0776  1.6120  -1.2168
Cl      1.1494  1.4288  1.3600
C       2.6050  -0.6941  -0.7868
C       2.1222  -1.9631  -0.1051
C       -2.4821  -1.3197  -0.4513
C       -2.4131  -1.1343  1.0649
N       1.4282  0.0583  -1.2938
N       1.0737  -1.5314  0.8639
N       -1.1255  -1.4260  -1.1057
N       -1.4752  -0.0352  1.4358
H       2.9360  -2.4698  0.3879
H       1.6811  -2.6476  -0.8111
H       -2.9534  -0.4559  -0.8904
H       -3.0957  -2.1819  -0.6764
H       1.6685  1.0190  -1.4816
H       1.1034  -0.3223  -2.1710
H       -1.9167  0.8692  1.4332
H       -1.0912  -0.1654  2.3577
H       -2.0670  -2.0348  1.5479
H       -3.4152  -0.9457  1.4264
H       0.5062  -2.3081  1.1457
H       1.4967  -1.1534  1.6906
H       3.2981  -0.9057  -1.5853
H       3.1013  -0.0573  -0.0721
H       -0.7972  -2.3693  -1.1057
H       -1.2150  -1.1341  -2.0613
