27

Co      -0.0051  -0.0690  -0.0180
Cl      -1.0852  1.6124  -1.2061
Cl      1.1945  1.5049  1.4133
C       2.6553  -0.6918  -0.8208
C       2.0984  -1.9072  -0.1041
C       -2.5240  -1.3019  -0.4407
C       -2.4124  -1.1483  1.0672
N       1.4915  0.0746  -1.3376
N       1.0332  -1.4561  0.8477
N       -1.1467  -1.3171  -1.0448
N       -1.4711  -0.0353  1.3184
H       2.8681  -2.4489  0.4231
H       1.6401  -2.5847  -0.8105
H       -3.0406  -0.4566  -0.8585
H       -3.0610  -2.1980  -0.7105
H       1.6867  1.0615  -1.3649
H       1.2460  -0.1932  -2.2703
H       -1.9074  0.8591  1.1611
H       -1.1368  -0.0138  2.2641
H       -2.0196  -2.0402  1.5289
H       -3.3787  -0.9560  1.4997
H       0.5235  -2.2422  1.1947
H       1.4578  -1.0049  1.6376
H       3.3213  -0.9825  -1.6148
H       3.1930  -0.0550  -0.1413
H       -0.8099  -2.2616  -1.1170
H       -1.2121  -0.9489  -1.9774
