27

Co      0.0609  -0.0039  0.0176
Cl      -1.1204  1.6611  -1.2499
Cl      1.1271  1.3998  1.3231
C       2.6542  -0.7150  -0.8198
C       2.1447  -1.9448  -0.0963
C       -2.5142  -1.2993  -0.4321
C       -2.4421  -1.1653  1.0797
N       1.4691  0.0662  -1.2554
N       1.0693  -1.4635  0.8242
N       -1.1275  -1.3442  -1.0297
N       -1.5128  -0.0458  1.3769
H       2.9250  -2.4381  0.4560
H       1.7159  -2.6590  -0.7854
H       -2.9945  -0.4317  -0.8441
H       -3.0778  -2.1734  -0.7216
H       1.6992  1.0368  -1.3668
H       1.1407  -0.2408  -2.1533
H       -1.9603  0.8409  1.2113
H       -1.2160  -0.0364  2.3381
H       -2.0665  -2.0635  1.5480
H       -3.4291  -0.9804  1.4764
H       0.4877  -2.2297  1.1150
H       1.4891  -1.0792  1.6510
H       3.2760  -0.9704  -1.6625
H       3.2288  -0.0977  -0.1506
H       -0.8044  -2.2900  -1.0842
H       -1.1973  -0.9934  -1.9683
