27

Co      0.0457  0.0356  0.0281
Cl      -1.0985  1.6377  -1.2400
Cl      1.1083  1.3784  1.3114
C       2.5827  -0.7230  -0.8028
C       2.0737  -1.8299  -0.1299
C       -2.4667  -1.2755  -0.4091
C       -2.4329  -1.1446  1.0456
N       1.5456  0.0095  -1.3322
N       1.0521  -1.5069  0.8092
N       -1.0853  -1.3240  -0.9539
N       -1.5012  -0.1085  1.3715
H       2.9438  -2.2255  0.3819
H       1.7132  -2.6097  -0.7906
H       -2.9987  -0.4808  -0.8933
H       -2.9667  -2.2075  -0.6254
H       1.8175  0.9625  -1.5052
H       1.2287  -0.3551  -2.2138
H       -1.9313  0.7905  1.2658
H       -1.2018  -0.1639  2.3241
H       -2.0868  -2.0761  1.4791
H       -3.4254  -0.9680  1.4319
H       0.5247  -2.3532  0.9910
H       1.4416  -1.2110  1.6954
H       3.3003  -1.0791  -1.5333
H       3.1166  -0.1166  -0.0991
H       -0.7562  -2.2645  -0.9231
H       -1.1387  -1.0611  -1.9197
