27

Co      0.0502  0.0006  0.0472
Cl      -1.1139  1.6702  -1.2630
Cl      1.1166  1.3792  1.3198
C       2.6056  -0.6968  -0.7743
C       2.0633  -1.8646  -0.0921
C       -2.4538  -1.3376  -0.4580
C       -2.4223  -1.1168  1.0703
N       1.4738  0.0346  -1.3085
N       1.0850  -1.4445  0.8010
N       -1.1085  -1.3845  -1.1140
N       -1.4696  -0.0329  1.4521
H       2.9423  -2.4592  0.2122
H       1.5036  -2.4569  -0.8118
H       -2.8733  -0.4816  -0.9721
H       -3.1460  -2.1936  -0.5552
H       1.7837  0.9700  -1.6319
H       1.3567  -0.4596  -2.2142
H       -1.9624  0.8498  1.4634
H       -1.2109  -0.1785  2.4243
H       -2.0799  -1.9780  1.6448
H       -3.4780  -0.9547  1.3287
H       0.5880  -2.2589  1.1101
H       1.6466  -1.2060  1.6276
H       3.3435  -1.1933  -1.4373
H       3.1141  0.0196  -0.1493
H       -0.9168  -2.3798  -1.2556
H       -1.2694  -1.0438  -2.0505
