27

Co      -0.0664  -0.0070  0.0044
Cl      -1.0832  1.5918  -1.2022
Cl      1.1705  1.4452  1.3604
C       2.7154  -0.7390  -0.8389
C       2.1815  -1.9455  -0.0974
C       -2.5727  -1.3066  -0.4501
C       -2.4009  -1.1578  1.0391
N       1.5433  0.0750  -1.2887
N       1.1164  -1.4868  0.8511
N       -1.1662  -1.2253  -0.9605
N       -1.4360  -0.0479  1.2399
H       2.9670  -2.4594  0.4393
H       1.7404  -2.6588  -0.7813
H       -3.1545  -0.5095  -0.8865
H       -3.0125  -2.2584  -0.7228
H       1.7770  1.0598  -1.2579
H       1.3052  -0.1250  -2.2428
H       -1.8975  0.8420  1.1512
H       -1.0556  -0.0538  2.1651
H       -1.9671  -2.0586  1.4606
H       -3.3265  -0.9613  1.5637
H       0.6680  -2.2893  1.2626
H       1.5619  -0.9828  1.6061
H       3.3244  -1.0414  -1.6813
H       3.3194  -0.1271  -0.1871
H       -0.7493  -2.1396  -0.9163
H       -1.1785  -0.9430  -1.9216
