27

Co      0.0463  -0.0042  0.0247
Cl      -1.1055  1.6501  -1.2358
Cl      1.1097  1.3797  1.3143
C       2.5623  -0.6959  -0.7779
C       2.0575  -1.8455  -0.0783
C       -2.4548  -1.2624  -0.4427
C       -2.3752  -1.1509  1.0577
N       1.4955  0.0907  -1.3716
N       1.0817  -1.5491  0.8690
N       -1.0898  -1.3854  -1.0325
N       -1.4936  -0.0091  1.3959
H       2.9020  -2.3848  0.3262
H       1.6098  -2.4959  -0.8182
H       -2.8805  -0.3550  -0.8375
H       -3.0884  -2.0911  -0.7371
H       1.7533  1.0496  -1.5036
H       1.2244  -0.2589  -2.2722
H       -1.9561  0.8730  1.2874
H       -1.1649  -0.0462  2.3382
H       -1.9631  -2.0414  1.5123
H       -3.3769  -1.0226  1.4505
H       0.5354  -2.3769  1.0600
H       1.4628  -1.2305  1.7492
H       3.1911  -1.1354  -1.5486
H       3.1743  -0.0542  -0.1708
H       -0.7780  -2.3338  -1.0003
H       -1.1273  -1.1080  -1.9947
