27

Co      -0.0467  -0.0010  -0.0438
Cl      -1.0539  1.5562  -1.1746
Cl      1.1848  1.4784  1.3972
C       2.6423  -0.7045  -0.8044
C       2.1297  -1.9466  -0.0991
C       -2.5535  -1.3076  -0.4447
C       -2.4183  -1.1640  1.0480
N       1.4828  0.0762  -1.3309
N       1.0768  -1.5137  0.8670
N       -1.1347  -1.2127  -0.9295
N       -1.4243  -0.0769  1.2376
H       2.9376  -2.4556  0.4098
H       1.6940  -2.6496  -0.7954
H       -3.1271  -0.5044  -0.8821
H       -2.9825  -2.2550  -0.7465
H       1.7129  1.0580  -1.3441
H       1.2614  -0.1730  -2.2753
H       -1.8749  0.8208  1.1679
H       -1.0222  -0.0952  2.1522
H       -2.0272  -2.0722  1.4876
H       -3.3499  -0.9306  1.5457
H       0.6159  -2.3101  1.2701
H       1.5167  -1.0155  1.6260
H       3.3255  -0.9642  -1.5992
H       3.1612  -0.0719  -0.1059
H       -0.7045  -2.1210  -0.8391
H       -1.1511  -0.9839  -1.9093
