27

Co      0.0658  0.0223  0.0088
Cl      -1.0736  1.5738  -1.2071
Cl      1.1243  1.4003  1.3243
C       2.6577  -0.7119  -0.8723
C       2.1327  -1.9241  -0.0575
C       -2.5189  -1.3330  -0.4417
C       -2.4736  -1.1542  1.0930
N       1.4670  0.0969  -1.2631
N       0.9829  -1.4244  0.7789
N       -1.1323  -1.2894  -1.0424
N       -1.5015  -0.0547  1.3864
H       2.9949  -2.3647  0.4280
H       1.6716  -2.6727  -0.6868
H       -2.9789  -0.4987  -0.9496
H       -3.1258  -2.2247  -0.5913
H       1.7861  1.0439  -1.4474
H       1.3199  -0.2488  -2.2063
H       -2.0132  0.8085  1.3031
H       -1.2718  -0.0977  2.3710
H       -2.1032  -2.0163  1.6394
H       -3.5004  -0.9808  1.4134
H       0.4277  -2.2183  1.0560
H       1.5037  -1.1962  1.6342
H       3.3343  -1.1346  -1.6149
H       3.2063  -0.0129  -0.2545
H       -0.9039  -2.2713  -1.1821
H       -1.2908  -0.9553  -1.9870
