27

Co      0.0000  -0.0068  0.0034
Cl      -1.0747  1.5914  -1.2121
Cl      1.1469  1.4325  1.3468
C       2.6533  -0.7095  -0.8711
C       2.1427  -1.9304  -0.0549
C       -2.5104  -1.3338  -0.4546
C       -2.4282  -1.1277  1.0729
N       1.4734  0.1127  -1.2774
N       1.0127  -1.4872  0.8339
N       -1.1249  -1.2721  -1.0401
N       -1.4333  -0.0453  1.3432
H       3.0332  -2.3828  0.3803
H       1.6636  -2.6664  -0.6858
H       -2.9996  -0.5262  -0.9842
H       -3.0908  -2.2508  -0.5757
H       1.7828  1.0696  -1.3728
H       1.3776  -0.1681  -2.2550
H       -1.9359  0.8297  1.3230
H       -1.1481  -0.1236  2.3048
H       -2.0499  -1.9909  1.6105
H       -3.4340  -0.9394  1.4296
H       0.5407  -2.3133  1.1608
H       1.5477  -1.2057  1.6575
H       3.3324  -1.1444  -1.6087
H       3.2044  -0.0108  -0.2575
H       -0.8683  -2.2444  -1.1389
H       -1.2613  -0.9648  -1.9925
