27

Co      0.0000  -0.0037  0.0033
Cl      -1.0657  1.5974  -1.2151
Cl      1.1409  1.4325  1.3498
C       2.5684  -0.7116  -0.8096
C       2.0896  -1.8696  -0.0494
C       -2.4627  -1.3338  -0.4549
C       -2.4134  -1.1157  1.0613
N       1.4548  0.0860  -1.3014
N       1.0229  -1.5107  0.7787
N       -1.0886  -1.2872  -1.0222
N       -1.4061  -0.0575  1.3613
H       3.0146  -2.3252  0.3306
H       1.6425  -2.5819  -0.7214
H       -2.9340  -0.5203  -0.9878
H       -3.0608  -2.2390  -0.5788
H       1.7926  1.0283  -1.4684
H       1.3820  -0.2634  -2.2639
H       -1.8937  0.8296  1.4092
H       -1.0942  -0.2008  2.3081
H       -2.0827  -1.9822  1.6341
H       -3.4368  -0.8976  1.3678
H       0.5532  -2.3571  1.0526
H       1.5230  -1.2622  1.6376
H       3.2405  -1.2496  -1.5115
H       3.1464  0.0021  -0.2384
H       -0.8232  -2.2536  -1.0645
H       -1.2187  -1.0363  -1.9923
