27

Co      -0.0018  -0.0307  0.0012
Cl      -1.1186  1.6548  -1.2449
Cl      1.1900  1.4882  1.3889
C       2.6887  -0.7381  -0.8365
C       2.1824  -1.9583  -0.0905
C       -2.5804  -1.3512  -0.4366
C       -2.4544  -1.1524  1.0635
N       1.5149  0.0790  -1.2687
N       1.1176  -1.5051  0.8625
N       -1.2043  -1.3087  -1.0540
N       -1.4733  -0.0619  1.3122
H       2.9834  -2.4542  0.4400
H       1.7416  -2.6754  -0.7679
H       -3.1547  -0.5525  -0.8815
H       -3.0671  -2.2915  -0.6684
H       1.7529  1.0597  -1.2679
H       1.2412  -0.1373  -2.2073
H       -1.9017  0.8414  1.2117
H       -1.1207  -0.0940  2.2523
H       -2.0969  -2.0494  1.5466
H       -3.4139  -0.9114  1.4942
H       0.6153  -2.2974  1.2135
H       1.5478  -1.0471  1.6492
H       3.2923  -1.0241  -1.6859
H       3.2956  -0.1256  -0.1863
H       -0.8400  -2.2427  -1.1526
H       -1.2885  -0.9172  -1.9784
