27

Co      0.0498  -0.0025  0.0283
Cl      -1.1229  1.6601  -1.2558
Cl      1.1226  1.3837  1.3210
C       2.6604  -0.6902  -0.8148
C       2.1021  -1.9160  -0.1005
C       -2.5164  -1.3251  -0.4369
C       -2.4478  -1.1454  1.0749
N       1.5217  0.0874  -1.3609
N       1.1092  -1.5017  0.9397
N       -1.1443  -1.3242  -1.0693
N       -1.5041  -0.0429  1.3980
H       2.8988  -2.5109  0.3226
H       1.5727  -2.5389  -0.8168
H       -3.0480  -0.4948  -0.8701
H       -3.0458  -2.2305  -0.6838
H       1.7427  1.0580  -1.4758
H       1.2318  -0.2494  -2.2606
H       -1.9390  0.8578  1.2925
H       -1.1784  -0.0922  2.3460
H       -2.0926  -2.0445  1.5605
H       -3.4409  -0.9453  1.4551
H       0.5740  -2.2953  1.2370
H       1.5623  -1.1159  1.7468
H       3.3437  -1.0001  -1.5940
H       3.1979  -0.0607  -0.1311
H       -0.8119  -2.2666  -1.1942
H       -1.2291  -0.9018  -1.9809
