27

Co      0.0482  0.0257  0.0266
Cl      -1.1016  1.6147  -1.2200
Cl      1.1028  1.3558  1.2966
C       2.6711  -0.7011  -0.8448
C       2.1125  -1.9026  -0.0874
C       -2.5025  -1.2606  -0.4388
C       -2.4120  -1.1776  1.0749
N       1.5416  0.1064  -1.3715
N       1.0623  -1.5090  0.9022
N       -1.1188  -1.3501  -1.0265
N       -1.5521  -0.0043  1.3999
H       2.9077  -2.4424  0.3905
H       1.6401  -2.5766  -0.7899
H       -2.9461  -0.3572  -0.8265
H       -3.1055  -2.1010  -0.7505
H       1.7803  1.0742  -1.4687
H       1.2421  -0.2059  -2.2762
H       -2.0406  0.8602  1.2325
H       -1.2519  0.0145  2.3569
H       -1.9504  -2.0667  1.4924
H       -3.4035  -1.0902  1.5086
H       0.4935  -2.3130  1.1260
H       1.4709  -1.1778  1.7599
H       3.3161  -1.0504  -1.6403
H       3.2507  -0.0708  -0.1936
H       -0.8010  -2.2988  -1.0324
H       -1.1569  -1.0329  -1.9764
