27

Co      0.0000  -0.0031  0.0194
Cl      0.0002  -2.2866  -0.2132
Cl      -0.0001  2.2887  0.2112
N       -1.4467  0.1612  -1.3323
N       -1.4533  -0.1634  1.3506
N       1.4860  0.1592  -1.3690
N       1.4140  -0.1610  1.3138
C       -2.7705  0.3888  -0.6576
C       -2.7707  -0.3852  0.6490
C       2.7951  0.3961  -0.6676
C       2.7462  -0.3774  0.6394
H       -1.3751  0.9212  -1.9891
H       -2.8338  1.4508  -0.4900
H       -3.5850  0.0989  -1.3020
H       -3.5901  -0.1113  1.2950
H       -2.8202  -1.4451  0.4724
H       -1.6193  0.6472  1.9342
H       -1.4062  -0.9304  2.0095
H       1.6564  -0.6611  -1.9317
H       1.4244  0.9092  -2.0428
H       3.6291  0.0955  -1.2825
H       2.8566  1.4600  -0.5059
H       2.7941  -1.4393  0.4540
H       3.5481  -0.1172  1.3125
H       1.3571  -0.9375  1.9602
H       1.5741  0.6406  1.9099
H       -1.6054  -0.6545  -1.9118
