27

Co      0.0370  0.0000  0.0000
Cl      -0.0030  -2.3036  -0.2148
Cl      -0.0034  2.3036  0.2149
N       -1.4316  0.1616  -1.3350
N       -1.4316  -0.1618  1.3349
N       1.3981  0.1545  -1.3127
N       1.3980  -0.1542  1.3127
C       -2.7873  0.4042  -0.6683
C       -2.7875  -0.4035  0.6683
C       2.7596  0.4031  -0.6688
C       2.7597  -0.4020  0.6688
H       -1.2895  0.9034  -1.9949
H       -2.8165  1.4661  -0.4912
H       -3.6370  0.1303  -1.2756
H       -3.6347  -0.1292  1.2780
H       -2.8172  -1.4668  0.4912
H       -1.5545  0.6761  1.8810
H       -1.2899  -0.9040  1.9945
H       1.5146  -0.6783  -1.8606
H       1.2291  0.9000  -1.9636
H       3.5978  0.1292  -1.2870
H       2.7889  1.4684  -0.4913
H       2.7897  -1.4673  0.4913
H       3.5978  -0.1276  1.2872
H       1.2292  -0.9001  1.9633
H       1.5141  0.6784  1.8609
H       -1.5570  -0.6764  -1.8807
