27

Co      -0.0125  0.0031  -0.0194
Cl      0.0002  -2.2727  -0.2160
Cl      -0.0001  2.2708  0.2181
N       -1.5092  0.1310  -1.3176
N       -1.5026  -0.1291  1.2991
N       1.4904  0.1397  -1.3308
N       1.5624  -0.1373  1.3860
C       -2.7575  0.4226  -0.6133
C       -2.7577  -0.4248  0.6219
C       2.7330  0.4129  -0.6082
C       2.7823  -0.4294  0.6365
H       -1.3014  0.8524  -1.9854
H       -2.8538  1.4758  -0.4017
H       -3.5839  0.1219  -1.2374
H       -3.5765  -0.1073  1.2470
H       -2.8687  -1.4786  0.4193
H       -1.6185  0.7329  1.7985
H       -1.2712  -0.8443  1.9641
H       1.6137  -0.7088  -1.8600
H       1.2935  0.8797  -1.9755
H       3.5625  0.1223  -1.2344
H       2.8244  1.4629  -0.3939
H       2.8886  -1.4814  0.4458
H       3.6434  -0.0974  1.2047
H       1.3611  -0.8515  2.0574
H       1.6950  0.7296  1.8824
H       -1.6351  -0.7263  -1.8202
