27

Co      0.0000  0.0000  0.0000
Cl      0.0002  -2.2975  -0.2178
Cl      -0.0001  2.2976  0.2179
N       -1.5501  0.1206  -1.3585
N       -1.5501  -0.1207  1.3584
N       1.5502  0.1224  -1.3584
N       1.5501  -0.1221  1.3584
C       -2.7722  0.4187  -0.6110
C       -2.7724  -0.4180  0.6110
C       2.7722  0.4186  -0.6111
C       2.7724  -0.4175  0.6112
H       -1.2792  0.9113  -1.9234
H       -2.8817  1.4661  -0.3828
H       -3.5788  0.1273  -1.2657
H       -3.5810  -0.1262  1.2636
H       -2.8823  -1.4640  0.3829
H       -1.6050  0.7046  1.9247
H       -1.2796  -0.9118  1.9229
H       1.6011  -0.7053  -1.9259
H       1.2794  0.9128  -1.9240
H       3.5788  0.1228  -1.2658
H       2.8837  1.4629  -0.3853
H       2.8845  -1.4618  0.3854
H       3.5787  -0.1212  1.2660
H       1.2817  -0.9129  1.9236
H       1.6006  0.7054  1.9263
H       -1.6030  -0.7050  -1.9244
