27

Co      -0.0370  0.0000  0.0000
Cl      0.0035  -2.3116  -0.2168
Cl      0.0031  2.3117  0.2169
N       -1.5019  0.1475  -1.3545
N       -1.4627  -0.1476  1.3176
N       1.4963  0.1526  -1.3399
N       1.5355  -0.1523  1.3767
C       -2.7796  0.4122  -0.6407
C       -2.7552  -0.4041  0.6308
C       2.7829  0.4058  -0.6306
C       2.8076  -0.4120  0.6405
H       -1.2044  0.8962  -1.9593
H       -2.8641  1.4625  -0.4218
H       -3.6199  0.1150  -1.2484
H       -3.5780  -0.1188  1.2659
H       -2.8402  -1.4544  0.4046
H       -1.3834  0.7329  1.8059
H       -1.1557  -0.9066  1.9073
H       1.4256  -0.7319  -1.8230
H       1.2161  0.9070  -1.9415
H       3.6148  0.1221  -1.2569
H       2.8655  1.4562  -0.4039
H       2.8909  -1.4624  0.4211
H       3.6590  -0.1156  1.2374
H       1.2653  -0.8972  1.9927
H       1.4742  0.7394  1.8455
H       -1.4304  -0.7406  -1.8277
