27

Co      0.0370  0.0000  0.0000
Cl      -0.0030  -2.3090  -0.2186
Cl      -0.0034  2.3091  0.2187
N       -1.4553  0.1482  -1.3418
N       -1.4945  -0.1483  1.3785
N       1.4610  0.1429  -1.3563
N       1.4217  -0.1426  1.3195
C       -2.7502  0.4020  -0.6347
C       -2.7750  -0.4086  0.6445
C       2.7470  0.4083  -0.6450
C       2.7226  -0.3999  0.6352
H       -1.2878  0.8970  -1.9832
H       -2.7966  1.4567  -0.4195
H       -3.5828  0.1464  -1.2701
H       -3.6269  -0.1404  1.2506
H       -2.8218  -1.4633  0.4367
H       -1.5587  0.7145  1.8861
H       -1.3373  -0.8877  2.0343
H       1.5146  -0.7167  -1.8676
H       1.2765  0.8856  -2.0015
H       3.5878  0.1385  -1.2619
H       2.7954  1.4631  -0.4387
H       2.7717  -1.4546  0.4215
H       3.5436  -0.1418  1.2817
H       1.2276  -0.8955  1.9497
H       1.4650  0.7095  1.8459
H       -1.5098  -0.7075  -1.8637
