27

Co      0.0370  0.0000  0.0000
Cl      -0.0030  -2.2868  -0.2177
Cl      -0.0034  2.2869  0.2178
N       -1.4433  0.1456  -1.3478
N       -1.4826  -0.1458  1.3845
N       1.4490  0.1404  -1.3622
N       1.4097  -0.1401  1.3254
C       -2.7331  0.4028  -0.6347
C       -2.7579  -0.4095  0.6445
C       2.7299  0.4092  -0.6450
C       2.7055  -0.4007  0.6352
H       -1.2758  0.8936  -1.9900
H       -2.7736  1.4575  -0.4169
H       -3.5700  0.1532  -1.2649
H       -3.6141  -0.1472  1.2455
H       -2.7988  -1.4642  0.4341
H       -1.5493  0.7180  1.8904
H       -1.3254  -0.8843  2.0411
H       1.5052  -0.7202  -1.8719
H       1.2645  0.8822  -2.0084
H       3.5750  0.1453  -1.2568
H       2.7724  1.4639  -0.4361
H       2.7487  -1.4555  0.4190
H       3.5308  -0.1486  1.2766
H       1.2156  -0.8921  1.9565
H       1.4556  0.7129  1.8502
H       -1.5005  -0.7110  -1.8680
