27

Co      0.0370  0.0000  0.0000
Cl      -0.0030  -2.2859  -0.2159
Cl      -0.0034  2.2859  0.2160
N       -1.4611  0.1496  -1.3221
N       -1.4611  -0.1497  1.3219
N       1.4275  0.1443  -1.2997
N       1.4275  -0.1440  1.2997
C       -2.7914  0.3849  -0.6392
C       -2.7916  -0.3842  0.6392
C       2.7637  0.3839  -0.6397
C       2.7638  -0.3828  0.6398
H       -1.4571  0.8918  -2.0228
H       -2.7646  1.4440  -0.4268
H       -3.6349  0.1900  -1.2868
H       -3.6326  -0.1889  1.2892
H       -2.7652  -1.4432  0.4269
H       -1.5799  0.6916  1.8619
H       -1.4575  -0.8923  2.0223
H       1.5381  -0.6938  -1.8434
H       1.3967  0.8903  -1.9895
H       3.5958  0.1870  -1.2983
H       2.7388  1.4430  -0.4288
H       2.7397  -1.4419  0.4289
H       3.5957  -0.1854  1.2984
H       1.3969  -0.8903  1.9892
H       1.5376  0.6939  1.8438
H       -1.5824  -0.6920  -1.8616
