27

Co      -0.0370  0.0000  0.0000
Cl      0.0035  -2.2753  -0.2170
Cl      0.0031  2.2754  0.2171
N       -1.5056  0.1341  -1.3662
N       -1.5056  -0.1343  1.3661
N       1.5392  0.1411  -1.3884
N       1.5392  -0.1408  1.3884
C       -2.7638  0.4213  -0.6288
C       -2.7640  -0.4206  0.6288
C       2.7916  0.4222  -0.6285
C       2.7918  -0.4211  0.6286
H       -1.2058  0.8744  -1.9805
H       -2.8081  1.4697  -0.3821
H       -3.6212  0.1727  -1.2323
H       -3.6234  -0.1716  1.2302
H       -2.8087  -1.4690  0.3821
H       -1.4493  0.7582  1.8291
H       -1.2062  -0.8749  1.9801
H       1.4897  -0.7573  -1.8481
H       1.2666  0.8772  -2.0123
H       3.6603  0.1730  -1.2212
H       2.8359  1.4689  -0.3832
H       2.8367  -1.4678  0.3833
H       3.6602  -0.1715  1.2213
H       1.2667  -0.8772  2.0120
H       1.4892  0.7574  1.8485
H       -1.4473  -0.7586  -1.8288
