27

Co      -0.0125  0.0031  -0.0194
Cl      0.0002  -2.3127  -0.2157
Cl      -0.0001  2.3107  0.2179
N       -1.4782  0.1476  -1.3246
N       -1.4717  -0.1456  1.3061
N       1.4595  0.1543  -1.3378
N       1.5314  -0.1520  1.3930
C       -2.7834  0.4040  -0.6332
C       -2.7837  -0.4062  0.6418
C       2.7590  0.3943  -0.6281
C       2.8082  -0.4108  0.6564
H       -1.3049  0.8939  -1.9716
H       -2.8366  1.4577  -0.4200
H       -3.6064  0.1410  -1.2795
H       -3.5990  -0.1264  1.2890
H       -2.8516  -1.4619  0.4376
H       -1.5135  0.7147  1.8178
H       -1.2746  -0.8858  1.9502
H       1.5106  -0.6907  -1.8774
H       1.2970  0.9193  -1.9635
H       3.5850  0.1433  -1.2765
H       2.8054  1.4481  -0.4103
H       2.8696  -1.4666  0.4623
H       3.6659  -0.1184  1.2468
H       1.3646  -0.8912  2.0454
H       1.5919  0.7114  1.8999
H       -1.5302  -0.7081  -1.8396
