27

Co      -0.0370  0.0031  -0.0194
Cl      0.0035  -2.2941  -0.2149
Cl      0.0031  2.2921  0.2170
N       -1.4844  0.1484  -1.3800
N       -1.4778  -0.1464  1.3614
N       1.4787  0.1535  -1.3654
N       1.5507  -0.1512  1.4206
C       -2.7478  0.4067  -0.6338
C       -2.7480  -0.4089  0.6424
C       2.7511  0.4003  -0.6238
C       2.8004  -0.4168  0.6521
H       -1.1976  0.9116  -1.9712
H       -2.8133  1.4561  -0.4042
H       -3.5995  0.1334  -1.2352
H       -3.5944  -0.1188  1.2425
H       -2.8282  -1.4602  0.4218
H       -1.4035  0.7363  1.8461
H       -1.1674  -0.9035  1.9498
H       1.4130  -0.7220  -1.8632
H       1.2093  0.9223  -1.9533
H       3.5944  0.1405  -1.2437
H       2.8147  1.4497  -0.3863
H       2.8789  -1.4682  0.4383
H       3.6753  -0.1156  1.2140
H       1.2769  -0.8942  2.0352
H       1.4943  0.7428  1.8857
H       -1.4179  -0.7297  -1.8678
