27

Co      0.0000  -0.0244  -0.0017
Cl      0.0002  -2.2549  -0.2153
Cl      -0.0001  2.2886  0.2188
N       -1.5158  0.1318  -1.3467
N       -1.5158  -0.1269  1.3450
N       1.5158  0.1336  -1.3467
N       1.5157  -0.1283  1.3450
C       -2.7667  0.4276  -0.5920
C       -2.7669  -0.4269  0.5936
C       2.7668  0.4275  -0.5921
C       2.7669  -0.4264  0.5939
H       -1.1960  0.8742  -1.9551
H       -2.9162  1.4746  -0.3688
H       -3.6063  0.0713  -1.1753
H       -3.6085  -0.0669  1.1749
H       -2.9169  -1.4725  0.3739
H       -1.5326  0.7728  1.7938
H       -1.2149  -0.8411  1.9899
H       1.5421  -0.7414  -1.8387
H       1.1962  0.8758  -1.9534
H       3.6063  0.0691  -1.1740
H       2.9196  1.4713  -0.3713
H       2.9204  -1.4702  0.3764
H       3.6062  -0.0641  1.1758
H       1.2149  -0.8422  1.9884
H       1.5282  0.7735  1.7954
H       -1.5440  -0.7411  -1.8373
