27

Co      -0.0370  0.0000  0.0000
Cl      0.0035  -2.2956  -0.2141
Cl      0.0031  2.2957  0.2142
N       -1.4800  0.1472  -1.3610
N       -1.4800  -0.1474  1.3609
N       1.5136  0.1524  -1.3833
N       1.5136  -0.1521  1.3833
C       -2.7964  0.4026  -0.6195
C       -2.7966  -0.4019  0.6194
C       2.8243  0.4036  -0.6192
C       2.8244  -0.4025  0.6193
H       -1.3087  0.9063  -1.9923
H       -2.8748  1.4545  -0.4133
H       -3.6328  0.1015  -1.2328
H       -3.6328  -0.1004  1.2329
H       -2.8754  -1.4537  0.4133
H       -1.5469  0.6994  1.8928
H       -1.3091  -0.9069  1.9918
H       1.5915  -0.6984  -1.9099
H       1.3695  0.9072  -2.0259
H       3.6719  0.1037  -1.2202
H       2.9022  1.4555  -0.4126
H       2.9030  -1.4544  0.4126
H       3.6718  -0.1022  1.2203
H       1.3696  -0.9073  2.0256
H       1.5910  0.6985  1.9103
H       -1.5472  -0.6997  -1.8925
