27

Co      -0.0370  -0.0244  -0.0017
Cl      0.0035  -2.3003  -0.2188
Cl      0.0031  2.3340  0.2223
N       -1.5208  0.1367  -1.3553
N       -1.5208  -0.1318  1.3535
N       1.5544  0.1437  -1.3775
N       1.5544  -0.1383  1.3758
C       -2.7382  0.4250  -0.6174
C       -2.7385  -0.4243  0.6191
C       2.7661  0.4260  -0.6172
C       2.7662  -0.4249  0.6190
H       -1.1774  0.8868  -1.9459
H       -2.8622  1.4749  -0.3964
H       -3.5829  0.0983  -1.2055
H       -3.5851  -0.0938  1.2050
H       -2.8629  -1.4728  0.4015
H       -1.5135  0.7628  1.8092
H       -1.1964  -0.8536  1.9808
H       1.5674  -0.7298  -1.8719
H       1.2382  0.8896  -1.9777
H       3.6219  0.0986  -1.1943
H       2.8901  1.4726  -0.3976
H       2.8909  -1.4715  0.4027
H       3.6219  -0.0937  1.1961
H       1.2569  -0.8560  2.0127
H       1.5534  0.7619  1.8285
H       -1.5250  -0.7312  -1.8526
