27

Co      -0.0125  0.0031  -0.0194
Cl      0.0002  -2.2905  -0.2149
Cl      -0.0001  2.2885  0.2170
N       -1.4663  0.1450  -1.3306
N       -1.4597  -0.1431  1.3121
N       1.4475  0.1517  -1.3438
N       1.5195  -0.1494  1.3990
C       -2.7664  0.4049  -0.6332
C       -2.7666  -0.4070  0.6418
C       2.7419  0.3952  -0.6281
C       2.7911  -0.4117  0.6564
H       -1.2929  0.8905  -1.9784
H       -2.8136  1.4586  -0.4175
H       -3.5936  0.1478  -1.2744
H       -3.5862  -0.1332  1.2839
H       -2.8286  -1.4627  0.4351
H       -1.5041  0.7181  1.8221
H       -1.2627  -0.8824  1.9570
H       1.5013  -0.6941  -1.8817
H       1.2850  0.9159  -1.9703
H       3.5722  0.1501  -1.2714
H       2.7823  1.4489  -0.4077
H       2.8466  -1.4675  0.4597
H       3.6531  -0.1252  1.2417
H       1.3527  -0.8878  2.0522
H       1.5826  0.7149  1.9041
H       -1.5208  -0.7116  -1.8438
