27

Co      -0.0370  0.0031  -0.0194
Cl      0.0035  -2.3163  -0.2157
Cl      0.0031  2.3143  0.2179
N       -1.5170  0.1347  -1.3611
N       -1.5104  -0.1328  1.3426
N       1.5113  0.1398  -1.3465
N       1.5832  -0.1375  1.4017
C       -2.7423  0.4061  -0.6211
C       -2.7425  -0.4082  0.6297
C       2.7456  0.3997  -0.6111
C       2.7949  -0.4161  0.6394
H       -1.1680  0.9430  -1.8852
H       -2.8667  1.4568  -0.4154
H       -3.5860  0.0745  -1.2088
H       -3.5809  -0.0600  1.2161
H       -2.8816  -1.4596  0.4330
H       -1.5007  0.6956  1.9104
H       -1.1377  -0.9350  1.8638
H       1.5102  -0.6814  -1.9275
H       1.1796  0.9538  -1.8695
H       3.5809  0.0795  -1.2172
H       2.8681  1.4490  -0.3975
H       2.9323  -1.4676  0.4495
H       3.6619  -0.0546  1.1875
H       1.2495  -0.9256  1.9514
H       1.5915  0.7021  1.9500
H       -1.5150  -0.6890  -1.9322
