27

Co      -0.0370  0.0031  -0.0194
Cl      0.0035  -2.2763  -0.2160
Cl      0.0031  2.2744  0.2181
N       -1.4938  0.1342  -1.3418
N       -1.5265  -0.1323  1.3601
N       1.5274  0.1412  -1.3640
N       1.5600  -0.1389  1.3824
C       -2.7290  0.4161  -0.6133
C       -2.7537  -0.4256  0.6316
C       2.7568  0.4170  -0.6130
C       2.7815  -0.4262  0.6315
H       -1.2814  0.8742  -1.9849
H       -2.8168  1.4693  -0.3996
H       -3.5644  0.1243  -1.2283
H       -3.6012  -0.1048  1.2183
H       -2.8563  -1.4794  0.4344
H       -1.6488  0.7245  1.8667
H       -1.3003  -0.8563  2.0151
H       1.6588  -0.7102  -1.8856
H       1.3422  0.8770  -2.0167
H       3.6035  0.1247  -1.2172
H       2.8446  1.4670  -0.4008
H       2.8843  -1.4782  0.4356
H       3.6402  -0.1047  1.2071
H       1.3608  -0.8587  2.0470
H       1.6910  0.7236  1.8860
H       -1.6164  -0.7105  -1.8663
