27

Co      -0.0125  -0.0244  -0.0017
Cl      0.0002  -2.2726  -0.2142
Cl      -0.0001  2.3063  0.2177
N       -1.4917  0.1442  -1.3474
N       -1.4524  -0.1393  1.3088
N       1.4729  0.1510  -1.3606
N       1.5121  -0.1456  1.3957
C       -2.7764  0.4123  -0.6325
C       -2.7521  -0.4042  0.6244
C       2.7519  0.4026  -0.6274
C       2.7766  -0.4088  0.6390
H       -1.2658  0.9071  -1.9557
H       -2.8647  1.4602  -0.4029
H       -3.5668  0.1380  -1.3136
H       -3.5249  -0.1385  1.3328
H       -2.8408  -1.4521  0.3908
H       -1.4110  0.7451  1.7889
H       -1.2356  -0.8838  1.9390
H       1.4520  -0.7023  -1.8922
H       1.2578  0.9326  -1.9476
H       3.5454  0.1403  -1.3106
H       2.8334  1.4505  -0.3932
H       2.8588  -1.4568  0.4155
H       3.5895  -0.1304  1.2928
H       1.3256  -0.8892  2.0342
H       1.4871  0.7418  1.8710
H       -1.4715  -0.7208  -1.8544
