27

Co      0.0000  0.0000  0.0000
Cl      0.0002  -2.3152  -0.2168
Cl      -0.0001  2.3153  0.2169
N       -1.4960  0.1523  -1.3691
N       -1.4960  -0.1525  1.3690
N       1.4960  0.1523  -1.3691
N       1.4959  -0.1520  1.3691
C       -2.7810  0.4031  -0.6422
C       -2.7813  -0.4024  0.6421
C       2.7811  0.4031  -0.6423
C       2.7813  -0.4020  0.6424
H       -1.3244  0.9071  -2.0031
H       -2.8320  1.4578  -0.4346
H       -3.6249  0.1355  -1.2597
H       -3.6249  -0.1344  1.2598
H       -2.8327  -1.4571  0.4346
H       -1.5497  0.6984  1.8955
H       -1.3248  -0.9077  2.0026
H       1.5499  -0.6990  -1.8947
H       1.3246  0.9068  -2.0033
H       3.6249  0.1351  -1.2598
H       2.8321  1.4578  -0.4352
H       2.8330  -1.4567  0.4353
H       3.6248  -0.1335  1.2599
H       1.3247  -0.9069  2.0030
H       1.5494  0.6991  1.8951
H       -1.5499  -0.6988  -1.8951
