27

Co      0.0000  0.0000  0.0000
Cl      0.0002  -2.2833  -0.2177
Cl      -0.0001  2.2833  0.2178
N       -1.4079  0.1437  -1.3280
N       -1.4079  -0.1438  1.3279
N       1.4080  0.1436  -1.3279
N       1.4079  -0.1433  1.3279
C       -2.7609  0.4003  -0.6569
C       -2.7612  -0.3996  0.6569
C       2.7610  0.4003  -0.6571
C       2.7611  -0.3992  0.6571
H       -1.2979  0.8746  -2.0119
H       -2.6971  1.4604  -0.4380
H       -3.6421  0.2212  -1.2581
H       -3.6398  -0.2201  1.2605
H       -2.6978  -1.4611  0.4380
H       -1.4828  0.7149  1.8409
H       -1.2984  -0.8751  2.0114
H       1.4853  -0.7155  -1.8402
H       1.2981  0.8743  -2.0121
H       3.6420  0.2209  -1.2582
H       2.6972  1.4619  -0.4386
H       2.6981  -1.4608  0.4387
H       3.6420  -0.2193  1.2584
H       1.2983  -0.8744  2.0118
H       1.4848  0.7156  1.8406
H       -1.4853  -0.7152  -1.8406
