27

Co      0.0000  0.0244  0.0017
Cl      0.0002  -2.2841  -0.2167
Cl      -0.0001  2.2505  0.2135
N       -1.4382  0.1432  -1.3532
N       -1.4382  -0.1483  1.3548
N       1.4382  0.1431  -1.3531
N       1.4381  -0.1478  1.3548
C       -2.7699  0.4164  -0.6623
C       -2.7701  -0.4157  0.6606
C       2.7699  0.4164  -0.6624
C       2.7701  -0.4153  0.6608
H       -1.2944  0.8592  -2.0429
H       -2.7598  1.4765  -0.4632
H       -3.6408  0.1826  -1.2562
H       -3.6385  -0.1848  1.2569
H       -2.7605  -1.4772  0.4582
H       -1.5805  0.6825  1.9055
H       -1.2763  -0.8934  2.0071
H       1.5695  -0.7151  -1.8610
H       1.2945  0.8589  -2.0431
H       3.6407  0.1822  -1.2563
H       2.7599  1.4779  -0.4639
H       2.7608  -1.4768  0.4589
H       3.6407  -0.1840  1.2548
H       1.2762  -0.8926  2.0074
H       1.5825  0.6833  1.9052
H       -1.5695  -0.7149  -1.8614
