27

Co      0.0370  0.0000  0.0000
Cl      -0.0030  -2.3055  -0.2186
Cl      -0.0034  2.3055  0.2187
N       -1.4641  0.1458  -1.3315
N       -1.4641  -0.1459  1.3314
N       1.4306  0.1405  -1.3091
N       1.4305  -0.1402  1.3092
C       -2.7648  0.4069  -0.6372
C       -2.7651  -0.4062  0.6372
C       2.7371  0.4058  -0.6377
C       2.7373  -0.4047  0.6378
H       -1.2980  0.8825  -1.9886
H       -2.8173  1.4616  -0.4257
H       -3.5941  0.1415  -1.2734
H       -3.5940  -0.1404  1.2735
H       -2.8179  -1.4608  0.4257
H       -1.5210  0.7180  1.8392
H       -1.2984  -0.8830  1.9882
H       1.4769  -0.7202  -1.8207
H       1.2376  0.8810  -1.9554
H       3.5549  0.1385  -1.2849
H       2.7915  1.4606  -0.4277
H       2.7923  -1.4595  0.4277
H       3.5549  -0.1369  1.2850
H       1.2377  -0.8810  1.9551
H       1.4764  0.7203  1.8211
H       -1.5212  -0.7184  -1.8389
