27

Co      0.0000  0.0000  0.0000
Cl      0.0002  -2.2913  -0.2197
Cl      -0.0001  2.2914  0.2198
N       -1.5149  0.1318  -1.3429
N       -1.5149  -0.1319  1.3428
N       1.5149  0.1336  -1.3428
N       1.5149  -0.1333  1.3428
C       -2.7374  0.4276  -0.6157
C       -2.7377  -0.4269  0.6157
C       2.7375  0.4275  -0.6158
C       2.7377  -0.4264  0.6159
H       -1.1907  0.8576  -1.9668
H       -2.8605  1.4775  -0.3933
H       -3.5788  0.1023  -1.2087
H       -3.5811  -0.1012  1.2066
H       -2.8612  -1.4753  0.3934
H       -1.5199  0.7566  1.8089
H       -1.1911  -0.8581  1.9663
H       1.5160  -0.7572  -1.8101
H       1.1908  0.8591  -1.9652
H       3.5788  0.1001  -1.2088
H       2.8625  1.4742  -0.3958
H       2.8633  -1.4731  0.3959
H       3.5788  -0.0985  1.2090
H       1.1910  -0.8592  1.9648
H       1.5155  0.7573  1.8104
H       -1.5179  -0.7570  -1.8086
