27

Co      0.0370  0.0000  0.0000
Cl      -0.0030  -2.2814  -0.2140
Cl      -0.0034  2.2814  0.2141
N       -1.4154  0.1612  -1.3410
N       -1.4154  -0.1614  1.3409
N       1.3818  0.1541  -1.3187
N       1.3818  -0.1538  1.3187
C       -2.7767  0.3877  -0.6661
C       -2.7769  -0.3870  0.6661
C       2.7490  0.3867  -0.6666
C       2.7491  -0.3856  0.6667
H       -1.3207  0.9108  -2.0061
H       -2.7438  1.4497  -0.4692
H       -3.6523  0.1738  -1.2618
H       -3.6500  -0.1728  1.2642
H       -2.7444  -1.4504  0.4692
H       -1.4825  0.6860  1.8766
H       -1.3212  -0.9114  2.0056
H       1.4425  -0.6882  -1.8562
H       1.2603  0.9074  -1.9748
H       3.6131  0.1727  -1.2733
H       2.7162  1.4520  -0.4693
H       2.7170  -1.4509  0.4693
H       3.6131  -0.1711  1.2734
H       1.2605  -0.9075  1.9744
H       1.4420  0.6883  1.8566
H       -1.4850  -0.6863  -1.8763
