27

Co      0.0000  0.0244  0.0017
Cl      0.0002  -2.2841  -0.2167
Cl      -0.0001  2.2505  0.2135
N       -1.4565  0.1399  -1.3515
N       -1.4565  -0.1450  1.3531
N       1.4565  0.1398  -1.3515
N       1.4564  -0.1446  1.3532
C       -2.7493  0.4036  -0.6358
C       -2.7495  -0.4029  0.6341
C       2.7494  0.4036  -0.6359
C       2.7495  -0.4025  0.6343
H       -1.3681  0.8787  -2.0262
H       -2.8016  1.4559  -0.4199
H       -3.5400  0.1572  -1.3289
H       -3.5400  -0.1595  1.3273
H       -2.8022  -1.4552  0.4149
H       -1.5608  0.6843  1.9118
H       -1.3500  -0.9129  1.9904
H       1.5476  -0.7169  -1.8673
H       1.3683  0.8784  -2.0264
H       3.5400  0.1568  -1.3290
H       2.8017  1.4559  -0.4206
H       2.8025  -1.4548  0.4155
H       3.5399  -0.1586  1.3275
H       1.3500  -0.9122  1.9908
H       1.5606  0.6850  1.9115
H       -1.5476  -0.7166  -1.8677
