27

Co      -0.0125  0.0031  -0.0194
Cl      0.0002  -2.2709  -0.2122
Cl      -0.0001  2.2689  0.2144
N       -1.4814  0.1468  -1.3279
N       -1.4749  -0.1448  1.3094
N       1.4627  0.1535  -1.3411
N       1.5346  -0.1512  1.3963
C       -2.7842  0.4049  -0.6332
C       -2.7844  -0.4070  0.6418
C       2.7597  0.3952  -0.6281
C       2.8089  -0.4117  0.6564
H       -1.3090  0.8931  -1.9757
H       -2.8350  1.4586  -0.4183
H       -3.6097  0.1452  -1.2761
H       -3.6023  -0.1306  1.2857
H       -2.8499  -1.4627  0.4359
H       -1.5193  0.7155  1.8203
H       -1.2787  -0.8851  1.9544
H       1.5164  -0.6914  -1.8799
H       1.3010  0.9186  -1.9677
H       3.5882  0.1474  -1.2732
H       2.8037  1.4489  -0.4086
H       2.8679  -1.4675  0.4606
H       3.6691  -0.1225  1.2434
H       1.3687  -0.8904  2.0495
H       1.5977  0.7122  1.9024
H       -1.5359  -0.7089  -1.8421
