27

Co      0.0370  0.0244  0.0017
Cl      -0.0030  -2.3259  -0.2203
Cl      -0.0034  2.2923  0.2170
N       -1.4462  0.1479  -1.3342
N       -1.4855  -0.1531  1.3726
N       1.4519  0.1427  -1.3486
N       1.4126  -0.1474  1.3135
C       -2.7524  0.3997  -0.6446
C       -2.7772  -0.4064  0.6527
C       2.7493  0.4061  -0.6549
C       2.7249  -0.3976  0.6434
H       -1.3242  0.8711  -2.0212
H       -2.7650  1.4612  -0.4514
H       -3.6280  0.1470  -1.2257
H       -3.6699  -0.1443  1.2068
H       -2.7902  -1.4679  0.4636
H       -1.6355  0.6805  1.9193
H       -1.3552  -0.8955  2.0369
H       1.5802  -0.7147  -1.8570
H       1.3129  0.8598  -2.0396
H       3.6330  0.1390  -1.2175
H       2.7638  1.4676  -0.4706
H       2.7400  -1.4591  0.4484
H       3.5888  -0.1457  1.2356
H       1.2454  -0.9033  1.9523
H       1.5441  0.6754  1.8791
H       -1.5755  -0.7055  -1.8532
