27

Co      0.0000  0.0000  0.0000
Cl      0.0002  -2.2637  -0.2151
Cl      -0.0001  2.2637  0.2152
N       -1.4505  0.1424  -1.3237
N       -1.4505  -0.1426  1.3236
N       1.4506  0.1424  -1.3236
N       1.4505  -0.1421  1.3236
C       -2.7517  0.4072  -0.6374
C       -2.7519  -0.4065  0.6374
C       2.7518  0.4072  -0.6375
C       2.7519  -0.4061  0.6376
H       -1.2718  0.8811  -1.9761
H       -2.8027  1.4619  -0.4247
H       -3.5778  0.1444  -1.2757
H       -3.5777  -0.1433  1.2759
H       -2.8033  -1.4612  0.4247
H       -1.5046  0.7196  1.8322
H       -1.2722  -0.8817  1.9756
H       1.5048  -0.7202  -1.8315
H       1.2720  0.8808  -1.9763
H       3.5777  0.1440  -1.2759
H       2.8028  1.4619  -0.4253
H       2.8036  -1.4608  0.4254
H       3.5777  -0.1424  1.2760
H       1.2721  -0.8809  1.9760
H       1.5043  0.7203  1.8319
H       -1.5048  -0.7199  -1.8319
