27

Co      0.0125  0.0213  0.0211
Cl      0.0002  -2.3017  -0.2186
Cl      -0.0001  2.2701  0.2133
N       -1.4505  0.1410  -1.3411
N       -1.4571  -0.1482  1.3611
N       1.4693  0.1341  -1.3278
N       1.3973  -0.1409  1.2743
C       -2.7871  0.4169  -0.6526
C       -2.7873  -0.4133  0.6423
C       2.8117  0.4265  -0.6580
C       2.7627  -0.4078  0.6282
H       -1.3427  0.8706  -2.0187
H       -2.8339  1.4688  -0.4365
H       -3.5568  0.1753  -1.3785
H       -3.5641  -0.1911  1.3675
H       -2.8203  -1.4646  0.4139
H       -1.5660  0.6831  1.9177
H       -1.3553  -0.9134  2.0037
H       1.5559  -0.7404  -1.8129
H       1.3510  0.8446  -2.0272
H       3.5782  0.1723  -1.3818
H       2.8654  1.4799  -0.4475
H       2.8028  -1.4591  0.3905
H       3.4971  -0.1974  1.4101
H       1.2652  -0.9065  1.9093
H       1.4870  0.6878  1.8349
H       -1.5364  -0.7224  -1.8515
