27

Co      0.0000  -0.0244  -0.0017
Cl      0.0002  -2.2530  -0.2116
Cl      -0.0001  2.2867  0.2150
N       -1.4880  0.1476  -1.3571
N       -1.4880  -0.1426  1.3553
N       1.4880  0.1475  -1.3570
N       1.4880  -0.1422  1.3553
C       -2.7934  0.4099  -0.6118
C       -2.7936  -0.4091  0.6135
C       2.7934  0.4098  -0.6120
C       2.7936  -0.4087  0.6137
H       -1.2035  0.9150  -1.9453
H       -2.8974  1.4573  -0.3855
H       -3.6321  0.0945  -1.2141
H       -3.6343  -0.0901  1.2136
H       -2.8981  -1.4566  0.3905
H       -1.4334  0.7554  1.8156
H       -1.2225  -0.8818  1.9802
H       1.4448  -0.7240  -1.8587
H       1.2037  0.9147  -1.9456
H       3.6320  0.0942  -1.2128
H       2.8990  1.4574  -0.3861
H       2.8998  -1.4563  0.3912
H       3.6320  -0.0892  1.2146
H       1.2224  -0.8811  1.9806
H       1.4308  0.7561  1.8153
H       -1.4448  -0.7238  -1.8591
