27

Co      0.0000  0.0000  0.0000
Cl      0.0002  -2.2920  -0.2141
Cl      -0.0001  2.2921  0.2142
N       -1.5003  0.1517  -1.3378
N       -1.5003  -0.1518  1.3377
N       1.5004  0.1517  -1.3377
N       1.5003  -0.1514  1.3377
C       -2.8013  0.4043  -0.6398
C       -2.8015  -0.4036  0.6397
C       2.8013  0.4043  -0.6399
C       2.8015  -0.4032  0.6400
H       -1.3261  0.9002  -1.9801
H       -2.8618  1.4590  -0.4331
H       -3.6302  0.1304  -1.2746
H       -3.6301  -0.1293  1.2747
H       -2.8624  -1.4583  0.4331
H       -1.5517  0.7029  1.8578
H       -1.3265  -0.9008  1.9796
H       1.5519  -0.7035  -1.8571
H       1.3263  0.8999  -1.9803
H       3.6301  0.1301  -1.2747
H       2.8619  1.4590  -0.4337
H       2.8627  -1.4579  0.4338
H       3.6301  -0.1285  1.2749
H       1.3264  -0.9000  1.9800
H       1.5514  0.7036  1.8575
H       -1.5519  -0.7033  -1.8575
