27

Co      0.0000  0.0000  0.0000
Cl      0.0002  -2.2618  -0.2113
Cl      -0.0001  2.2619  0.2114
N       -1.4321  0.1597  -1.3188
N       -1.4321  -0.1598  1.3187
N       1.4321  0.1577  -1.3187
N       1.4321  -0.1574  1.3187
C       -2.7558  0.3918  -0.6558
C       -2.7561  -0.3911  0.6558
C       2.7559  0.3918  -0.6559
C       2.7560  -0.3907  0.6560
H       -1.2914  0.9077  -1.9739
H       -2.8047  1.4552  -0.4859
H       -3.6136  0.0979  -1.2399
H       -3.6113  -0.0968  1.2423
H       -2.8054  -1.4545  0.4860
H       -1.5522  0.6734  1.8698
H       -1.2918  -0.9082  1.9735
H       1.5565  -0.6740  -1.8672
H       1.2916  0.9055  -1.9760
H       3.6136  0.0994  -1.2400
H       2.8030  1.4571  -0.4847
H       2.8038  -1.4560  0.4847
H       3.6135  -0.0978  1.2402
H       1.2918  -0.9056  1.9757
H       1.5560  0.6741  1.8675
H       -1.5547  -0.6737  -1.8694
