27

Co      0.0000  0.0244  0.0017
Cl      0.0002  -2.3259  -0.2203
Cl      -0.0001  2.2923  0.2170
N       -1.4307  0.1461  -1.3499
N       -1.4307  -0.1513  1.3515
N       1.4307  0.1460  -1.3498
N       1.4306  -0.1508  1.3515
C       -2.7756  0.3983  -0.6602
C       -2.7758  -0.3976  0.6585
C       2.7757  0.3983  -0.6603
C       2.7758  -0.3972  0.6587
H       -1.3335  0.8708  -2.0430
H       -2.7118  1.4584  -0.4455
H       -3.6656  0.2151  -1.2509
H       -3.6633  -0.2174  1.2516
H       -2.7125  -1.4591  0.4404
H       -1.5121  0.6883  1.8944
H       -1.3154  -0.9050  2.0072
H       1.5011  -0.7209  -1.8499
H       1.3337  0.8705  -2.0433
H       3.6656  0.2147  -1.2510
H       2.7119  1.4598  -0.4461
H       2.7127  -1.4587  0.4411
H       3.6655  -0.2165  1.2495
H       1.3153  -0.9042  2.0076
H       1.5141  0.6890  1.8941
H       -1.5011  -0.7206  -1.8503
