27

Co      0.0370  0.0213  0.0211
Cl      -0.0030  -2.3053  -0.2186
Cl      -0.0034  2.2737  0.2133
N       -1.4678  0.1426  -1.3559
N       -1.4744  -0.1498  1.3759
N       1.4736  0.1373  -1.3704
N       1.4015  -0.1441  1.3169
C       -2.7986  0.4173  -0.6525
C       -2.7988  -0.4138  0.6423
C       2.7954  0.4237  -0.6628
C       2.7465  -0.4050  0.6330
H       -1.3669  0.8728  -2.0341
H       -2.8419  1.4692  -0.4348
H       -3.5757  0.1802  -1.3711
H       -3.5831  -0.1959  1.3601
H       -2.8282  -1.4650  0.4122
H       -1.5865  0.6808  1.9323
H       -1.3795  -0.9156  2.0192
H       1.5617  -0.7283  -1.8700
H       1.3556  0.8615  -2.0524
H       3.5808  0.1722  -1.3629
H       2.8407  1.4770  -0.4540
H       2.7781  -1.4563  0.3970
H       3.4997  -0.1973  1.3912
H       1.2697  -0.9234  1.9345
H       1.4928  0.6758  1.8921
H       -1.5569  -0.7201  -1.8661
