27

Co      0.0000  0.0000  0.0000
Cl      0.0002  -2.2673  -0.2151
Cl      -0.0001  2.2673  0.2152
N       -1.4613  0.1448  -1.3524
N       -1.4613  -0.1449  1.3523
N       1.4613  0.1447  -1.3523
N       1.4613  -0.1445  1.3523
C       -2.7493  0.4060  -0.6398
C       -2.7495  -0.4053  0.6397
C       2.7494  0.4060  -0.6399
C       2.7495  -0.4049  0.6400
H       -1.2861  0.8907  -1.9964
H       -2.7943  1.4607  -0.4271
H       -3.5885  0.1468  -1.2626
H       -3.5885  -0.1457  1.2627
H       -2.7949  -1.4600  0.4271
H       -1.5177  0.7124  1.8681
H       -1.2866  -0.8913  1.9959
H       1.5180  -0.7130  -1.8674
H       1.2863  0.8904  -1.9966
H       3.5885  0.1464  -1.2627
H       2.7944  1.4607  -0.4277
H       2.7952  -1.4596  0.4278
H       3.5884  -0.1448  1.2629
H       1.2865  -0.8905  1.9963
H       1.5175  0.7131  1.8678
H       -1.5180  -0.7128  -1.8678
