27

Co      0.0000  0.0000  0.0000
Cl      0.0002  -2.2956  -0.2141
Cl      -0.0001  2.2957  0.2142
N       -1.5111  0.1541  -1.3665
N       -1.5111  -0.1542  1.3664
N       1.5111  0.1540  -1.3664
N       1.5111  -0.1538  1.3664
C       -2.7989  0.4031  -0.6422
C       -2.7991  -0.4024  0.6421
C       2.7989  0.4031  -0.6423
C       2.7991  -0.4020  0.6424
H       -1.3404  0.9098  -2.0004
H       -2.8534  1.4578  -0.4355
H       -3.6409  0.1328  -1.2614
H       -3.6409  -0.1317  1.2616
H       -2.8540  -1.4571  0.4355
H       -1.5648  0.6957  1.8937
H       -1.3408  -0.9103  1.9999
H       1.5650  -0.6963  -1.8930
H       1.3406  0.9095  -2.0006
H       3.6409  0.1325  -1.2616
H       2.8535  1.4578  -0.4361
H       2.8543  -1.4567  0.4362
H       3.6408  -0.1309  1.2617
H       1.3408  -0.9096  2.0003
H       1.5645  0.6964  1.8933
H       -1.5651  -0.6961  -1.8934
