27

Co      0.0125  -0.0031  0.0194
Cl      0.0002  -2.2662  -0.2161
Cl      -0.0001  2.2683  0.2141
N       -1.4683  0.1472  -1.3682
N       -1.4748  -0.1494  1.3865
N       1.4871  0.1403  -1.3549
N       1.4150  -0.1421  1.2997
C       -2.7493  0.4063  -0.6463
C       -2.7495  -0.4027  0.6377
C       2.7739  0.4159  -0.6517
C       2.7250  -0.3972  0.6236
H       -1.2913  0.8944  -2.0076
H       -2.7980  1.4620  -0.4393
H       -3.5962  0.1389  -1.2559
H       -3.6036  -0.1513  1.2466
H       -2.7844  -1.4564  0.4217
H       -1.5407  0.7032  1.9099
H       -1.3224  -0.9035  2.0280
H       1.5441  -0.7285  -1.8488
H       1.2996  0.8683  -2.0161
H       3.6176  0.1359  -1.2592
H       2.8295  1.4717  -0.4503
H       2.7670  -1.4510  0.3984
H       3.5366  -0.1576  1.2892
H       1.2322  -0.8966  1.9336
H       1.4618  0.7080  1.8271
H       -1.5246  -0.7105  -1.8875
