27

Co      0.0370  0.0000  0.0000
Cl      -0.0030  -2.2859  -0.2159
Cl      -0.0034  2.2859  0.2160
N       -1.4596  0.1476  -1.3104
N       -1.4989  -0.1477  1.3471
N       1.4654  0.1423  -1.3249
N       1.4260  -0.1420  1.2881
C       -2.7704  0.4032  -0.6323
C       -2.7952  -0.4098  0.6421
C       2.7672  0.4095  -0.6426
C       2.7428  -0.4010  0.6328
H       -1.2895  0.8901  -1.9602
H       -2.8264  1.4579  -0.4180
H       -3.5880  0.1413  -1.2850
H       -3.6322  -0.1353  1.2655
H       -2.8516  -1.4645  0.4352
H       -1.5607  0.7191  1.8485
H       -1.3390  -0.8808  2.0113
H       1.5166  -0.7213  -1.8299
H       1.2782  0.8787  -1.9785
H       3.5931  0.1334  -1.2768
H       2.8252  1.4643  -0.4372
H       2.8015  -1.4558  0.4200
H       3.5488  -0.1367  1.2966
H       1.2292  -0.8886  1.9266
H       1.4670  0.7140  1.8082
H       -1.5118  -0.7121  -1.8261
