27

Co      0.0000  0.0000  0.0000
Cl      0.0002  -2.3135  -0.2205
Cl      -0.0001  2.3136  0.2206
N       -1.5269  0.1344  -1.3369
N       -1.5269  -0.1345  1.3368
N       1.5269  0.1362  -1.3368
N       1.5268  -0.1359  1.3368
C       -2.7545  0.4267  -0.6157
C       -2.7547  -0.4260  0.6157
C       2.7546  0.4267  -0.6158
C       2.7547  -0.4256  0.6159
H       -1.2026  0.8610  -1.9600
H       -2.8835  1.4766  -0.3959
H       -3.5916  0.0955  -1.2138
H       -3.5939  -0.0944  1.2117
H       -2.8842  -1.4745  0.3959
H       -1.5293  0.7532  1.8046
H       -1.2030  -0.8615  1.9595
H       1.5254  -0.7538  -1.8058
H       1.2028  0.8625  -1.9583
H       3.5916  0.0933  -1.2139
H       2.8855  1.4733  -0.3984
H       2.8864  -1.4722  0.3984
H       3.5916  -0.0917  1.2141
H       1.2029  -0.8626  1.9580
H       1.5249  0.7539  1.8062
H       -1.5273  -0.7535  -1.8043
