27

Co      0.0000  0.0000  0.0000
Cl      0.0002  -2.2949  -0.2197
Cl      -0.0001  2.2950  0.2198
N       -1.5075  0.1362  -1.3648
N       -1.5075  -0.1363  1.3647
N       1.5075  0.1380  -1.3647
N       1.5074  -0.1377  1.3647
C       -2.7438  0.4044  -0.6201
C       -2.7440  -0.4037  0.6201
C       2.7439  0.4044  -0.6202
C       2.7440  -0.4033  0.6203
H       -1.3481  0.8737  -2.0239
H       -2.7781  1.4587  -0.3960
H       -3.6144  0.1558  -1.2071
H       -3.6144  -0.1547  1.2073
H       -2.7787  -1.4565  0.3960
H       -1.5768  0.7257  1.8693
H       -1.3485  -0.8743  2.0235
H       1.5752  -0.7263  -1.8704
H       1.3483  0.8753  -2.0223
H       3.6144  0.1536  -1.2073
H       2.7800  1.4554  -0.3985
H       2.7809  -1.4543  0.3985
H       3.6143  -0.1520  1.2074
H       1.3484  -0.8754  2.0220
H       1.5747  0.7264  1.8708
H       -1.5771  -0.7260  -1.8690
