27

Co      0.0000  0.0244  0.0017
Cl      0.0002  -2.3008  -0.2138
Cl      -0.0001  2.2672  0.2106
N       -1.4392  0.1573  -1.3119
N       -1.4392  -0.1625  1.3135
N       1.4392  0.1553  -1.3119
N       1.4392  -0.1601  1.3136
C       -2.7729  0.3886  -0.6518
C       -2.7731  -0.3879  0.6501
C       2.7730  0.3885  -0.6519
C       2.7731  -0.3874  0.6503
H       -1.3854  0.8991  -1.9969
H       -2.8351  1.4495  -0.4813
H       -3.5779  0.1015  -1.3113
H       -3.5756  -0.1038  1.3120
H       -2.8357  -1.4488  0.4763
H       -1.6047  0.6419  1.9092
H       -1.3673  -0.9333  1.9611
H       1.5956  -0.6745  -1.8628
H       1.3856  0.8970  -1.9990
H       3.5779  0.1030  -1.3114
H       2.8333  1.4514  -0.4801
H       2.8341  -1.4503  0.4751
H       3.5778  -0.1048  1.3099
H       1.3672  -0.9307  1.9633
H       1.6085  0.6426  1.9070
H       -1.5937  -0.6742  -1.8651
