27

Co      -0.0370  0.0000  0.0000
Cl      0.0035  -2.3152  -0.2168
Cl      0.0031  2.3153  0.2169
N       -1.4988  0.1497  -1.3764
N       -1.4595  -0.1499  1.3395
N       1.4931  0.1549  -1.3618
N       1.5324  -0.1546  1.3986
C       -2.7794  0.4063  -0.6472
C       -2.7551  -0.3982  0.6374
C       2.7827  0.3999  -0.6372
C       2.8074  -0.4062  0.6471
H       -1.3186  0.9016  -2.0121
H       -2.8314  1.4610  -0.4439
H       -3.6274  0.1317  -1.2555
H       -3.5832  -0.1356  1.2753
H       -2.8075  -1.4529  0.4267
H       -1.5030  0.6955  1.8749
H       -1.2700  -0.9120  1.9601
H       1.5475  -0.6945  -1.8920
H       1.3303  0.9123  -1.9943
H       3.6223  0.1389  -1.2639
H       2.8328  1.4547  -0.4260
H       2.8582  -1.4609  0.4432
H       3.6664  -0.1324  1.2445
H       1.3796  -0.9026  2.0455
H       1.5961  0.7020  1.9145
H       -1.5523  -0.7032  -1.8967
