27

Co      0.0370  0.0000  0.0000
Cl      -0.0030  -2.2833  -0.2177
Cl      -0.0034  2.2833  0.2178
N       -1.4383  0.1431  -1.3307
N       -1.4383  -0.1432  1.3306
N       1.4047  0.1378  -1.3083
N       1.4047  -0.1375  1.3084
C       -2.7500  0.4030  -0.6414
C       -2.7503  -0.4023  0.6414
C       2.7223  0.4020  -0.6419
C       2.7225  -0.4009  0.6419
H       -1.3859  0.8749  -2.0279
H       -2.7698  1.4621  -0.4428
H       -3.5780  0.1628  -1.2885
H       -3.5757  -0.1617  1.2909
H       -2.7705  -1.4614  0.4429
H       -1.6180  0.6912  1.8766
H       -1.3863  -0.8754  2.0275
H       1.5762  -0.6934  -1.8581
H       1.3255  0.8734  -1.9947
H       3.5389  0.1597  -1.3000
H       2.7441  1.4611  -0.4448
H       2.7449  -1.4600  0.4448
H       3.5388  -0.1582  1.3001
H       1.3257  -0.8734  1.9944
H       1.5757  0.6935  1.8585
H       -1.6206  -0.6916  -1.8763
