27

Co      0.0000  0.0000  0.0000
Cl      0.0002  -2.2379  -0.2142
Cl      -0.0001  2.2379  0.2143
N       -1.3608  0.1371  -1.2505
N       -1.4393  -0.1373  1.3241
N       1.4393  0.1371  -1.3241
N       1.3607  -0.1368  1.2505
C       -2.7170  0.3925  -0.6336
C       -2.7663  -0.4066  0.6532
C       2.7661  0.4072  -0.6533
C       2.7172  -0.3914  0.6338
H       -1.3961  0.8696  -1.9760
H       -2.7147  1.4560  -0.4420
H       -3.5034  0.1825  -1.3439
H       -3.5873  -0.1716  1.3093
H       -2.7644  -1.4700  0.4763
H       -1.7440  0.6771  1.8889
H       -1.4947  -0.8505  2.0786
H       1.7488  -0.6777  -1.8882
H       1.4945  0.8497  -2.0793
H       3.5918  0.1723  -1.3048
H       2.7639  1.4707  -0.4769
H       2.7156  -1.4549  0.4426
H       3.5034  -0.1805  1.3442
H       1.3965  -0.8694  1.9759
H       1.6501  0.6631  1.8444
H       -1.6506  -0.6627  -1.8444
