27

Co      -0.0490  0.0000  0.0000
Cl      0.0068  -2.2946  -0.2123
Cl      0.0064  2.2947  0.2124
N       -1.4858  0.1491  -1.3683
N       -1.4858  -0.1492  1.3682
N       1.5119  0.1458  -1.3127
N       1.5119  -0.1455  1.3127
C       -2.8312  0.4002  -0.5989
C       -2.8315  -0.3995  0.5989
C       2.8869  0.4067  -0.5892
C       2.8870  -0.4056  0.5893
H       -1.3316  0.9153  -1.9975
H       -2.9421  1.4492  -0.3990
H       -3.6655  0.0560  -1.2014
H       -3.6655  -0.0549  1.2015
H       -2.9428  -1.4485  0.3990
H       -1.5701  0.6927  1.9114
H       -1.3320  -0.9158  1.9971
H       1.5997  -0.7130  -1.8257
H       1.3710  0.8856  -1.9782
H       3.6982  0.0654  -1.2216
H       3.0105  1.4557  -0.3833
H       3.0113  -1.4546  0.3833
H       3.6981  -0.0638  1.2217
H       1.3711  -0.8856  1.9778
H       1.5992  0.7131  1.8261
H       -1.5703  -0.6931  -1.9111
