27

Co      0.0000  0.0000  0.0000
Cl      0.0002  -2.2503  -0.2106
Cl      -0.0001  2.2503  0.2107
N       -1.5629  0.1139  -1.3289
N       -1.5628  -0.1141  1.3288
N       1.5629  0.1139  -1.3288
N       1.5628  -0.1136  1.3288
C       -2.7523  0.4101  -0.5962
C       -2.7526  -0.4094  0.5962
C       2.7524  0.4100  -0.5964
C       2.7525  -0.4089  0.5964
H       -1.1927  0.9736  -1.7852
H       -2.9841  1.4540  -0.3898
H       -3.4904  0.0261  -1.2985
H       -3.4949  -0.0250  1.2941
H       -2.9848  -1.4505  0.3898
H       -1.5928  0.6653  1.9749
H       -1.1931  -0.9742  1.7847
H       1.5885  -0.6659  -1.9741
H       1.1929  0.9733  -1.7899
H       3.4904  0.0212  -1.2986
H       2.9843  1.4512  -0.3905
H       2.9851  -1.4501  0.3905
H       3.4903  -0.0197  1.2988
H       1.1974  -0.9734  1.7895
H       1.5880  0.6660  1.9745
H       -1.5886  -0.6656  -1.9745
