27

Co      -0.0741  0.0061  -0.0389
Cl      0.0068  -2.3468  -0.2231
Cl      0.0064  2.3428  0.2273
N       -1.5285  0.1196  -1.3978
N       -1.5154  -0.1157  1.3609
N       1.5171  0.1337  -1.3687
N       1.6610  -0.1293  1.4791
C       -2.7597  0.4280  -0.5995
C       -2.7599  -0.4330  0.6166
C       2.7662  0.4152  -0.5793
C       2.8646  -0.4493  0.6358
H       -1.2815  0.8744  -2.0083
H       -2.8024  1.4633  -0.3009
H       -3.5450  0.2348  -1.3252
H       -3.5348  -0.2068  1.3397
H       -2.8316  -1.4724  0.3360
H       -1.4163  0.7887  1.8110
H       -1.2206  -0.8577  1.9661
H       1.4315  -0.7596  -1.8496
H       1.3047  0.8999  -1.9686
H       3.5349  0.2458  -1.3420
H       2.8089  1.4468  -0.2682
H       2.9365  -1.4850  0.3721
H       3.6968  -0.1976  1.2824
H       1.4398  -0.8435  2.1327
H       1.5946  0.8010  1.8942
H       -1.4448  -0.7752  -1.8548
