27

Co      -0.0741  0.0000  0.0000
Cl      0.0068  -2.3410  -0.2176
Cl      0.0064  2.3411  0.2177
N       -1.5244  0.1521  -1.4064
N       -1.4458  -0.1522  1.3327
N       1.5130  0.1624  -1.3773
N       1.5915  -0.1621  1.4509
C       -2.7925  0.4074  -0.6547
C       -2.7436  -0.3920  0.6351
C       2.7990  0.3947  -0.6345
C       2.8483  -0.4083  0.6542
H       -1.3392  0.9091  -2.0347
H       -2.8454  1.4621  -0.4581
H       -3.6535  0.1235  -1.2433
H       -3.5651  -0.1323  1.2827
H       -2.7969  -1.4467  0.4237
H       -1.4788  0.6820  1.8860
H       -1.2414  -0.9292  1.9311
H       1.5677  -0.6795  -1.9209
H       1.3624  0.9308  -1.9987
H       3.6434  0.1382  -1.2601
H       2.8481  1.4494  -0.4217
H       2.8980  -1.4630  0.4561
H       3.7317  -0.1268  1.2209
H       1.4607  -0.9113  2.1015
H       1.6653  0.6943  1.9655
H       -1.5773  -0.6971  -1.9299
