27

Co      0.0000  -0.0488  -0.0034
Cl      0.0002  -2.2203  -0.2147
Cl      -0.0001  2.2877  0.2215
N       -1.5591  0.1245  -1.3221
N       -1.5591  -0.1145  1.3186
N       1.5591  0.1282  -1.3220
N       1.5590  -0.1178  1.3187
C       -2.7487  0.4406  -0.5983
C       -2.7489  -0.4399  0.6017
C       2.7487  0.4406  -0.5984
C       2.7489  -0.4395  0.6019
H       -1.2965  0.8516  -1.9683
H       -2.8977  1.4944  -0.3931
H       -3.5819  0.0915  -1.1921
H       -3.5818  -0.0837  1.1956
H       -2.8983  -1.4909  0.4032
H       -1.7424  0.7704  1.7729
H       -1.3340  -0.7848  2.0385
H       1.7658  -0.7071  -1.8635
H       1.2967  0.8551  -1.9648
H       3.5818  0.0874  -1.1922
H       2.9015  1.4878  -0.3975
H       2.9024  -1.4867  0.4076
H       3.5818  -0.0791  1.1957
H       1.3339  -0.7878  2.0352
H       1.7384  0.7711  1.7763
H       -1.7696  -0.7068  -1.8601
