27

Co      -0.0741  0.0000  0.0000
Cl      0.0068  -2.2574  -0.2106
Cl      0.0064  2.2575  0.2107
N       -1.5378  0.1488  -1.3729
N       -1.5377  -0.1490  1.3728
N       1.6049  0.1591  -1.4174
N       1.6048  -0.1589  1.4174
C       -2.7283  0.3810  -0.6015
C       -2.7285  -0.3803  0.6015
C       2.7839  0.3829  -0.6009
C       2.7841  -0.3818  0.6010
H       -1.3003  0.9467  -1.9339
H       -2.8864  1.4249  -0.3703
H       -3.5113  0.0618  -1.2706
H       -3.5158  -0.0607  1.2663
H       -2.8871  -1.4214  0.3704
H       -1.4274  0.7186  1.8820
H       -1.3008  -0.9473  1.9334
H       1.5117  -0.7161  -1.9170
H       1.4217  0.9489  -2.0010
H       3.5895  0.0667  -1.2481
H       2.9383  1.4241  -0.3683
H       2.9391  -1.4230  0.3683
H       3.5894  -0.0651  1.2483
H       1.4219  -0.9490  2.0007
H       1.5112  0.7162  1.9173
H       -1.4231  -0.7189  -1.8817
