27

Co      0.0741  -0.0061  0.0389
Cl      -0.0063  -2.2358  -0.2162
Cl      -0.0067  2.2400  0.2123
N       -1.4367  0.1451  -1.2912
N       -1.4499  -0.1494  1.3280
N       1.4482  0.1347  -1.3202
N       1.3041  -0.1385  1.2098
C       -2.7693  0.4086  -0.6613
C       -2.7696  -0.4022  0.6441
C       2.7629  0.4213  -0.6818
C       2.6649  -0.3850  0.6254
H       -1.3296  0.8427  -2.0158
H       -2.7649  1.4789  -0.4948
H       -3.6763  0.1425  -1.1914
H       -3.6866  -0.1684  1.1773
H       -2.7369  -1.4684  0.4596
H       -1.6829  0.6855  1.8643
H       -1.3914  -0.8604  2.0571
H       1.6645  -0.7158  -1.8279
H       1.3068  0.8203  -2.0523
H       3.6865  0.1270  -1.1749
H       2.7623  1.4917  -0.5325
H       2.6364  -1.4513  0.4286
H       3.5244  -0.1721  1.2348
H       1.1720  -0.8768  1.8875
H       1.5003  0.6746  1.7841
H       -1.6549  -0.6997  -1.8198
