27

Co      0.0000  -0.0488  -0.0034
Cl      0.0002  -2.2630  -0.2125
Cl      -0.0001  2.3303  0.2194
N       -1.5129  0.1527  -1.4191
N       -1.5129  -0.1427  1.4156
N       1.5129  0.1526  -1.4190
N       1.5128  -0.1422  1.4156
C       -2.7571  0.4073  -0.6248
C       -2.7573  -0.4066  0.6281
C       2.7571  0.4073  -0.6249
C       2.7573  -0.4062  0.6284
H       -1.2540  0.9650  -1.9542
H       -2.8639  1.4484  -0.3706
H       -3.5324  0.1436  -1.3301
H       -3.5369  -0.1357  1.3291
H       -2.8645  -1.4477  0.3807
H       -1.3998  0.7628  1.8692
H       -1.2915  -0.8982  2.0244
H       1.4225  -0.6994  -1.9561
H       1.2542  0.9647  -1.9544
H       3.5324  0.1432  -1.3303
H       2.8640  1.4485  -0.3712
H       2.8648  -1.4474  0.3814
H       3.5323  -0.1349  1.3338
H       1.2914  -0.8975  2.0248
H       1.3950  0.7635  1.8689
H       -1.4225  -0.6992  -1.9564
