27

Co      0.0250  0.0427  0.0422
Cl      0.0002  -2.3173  -0.2138
Cl      -0.0001  2.2541  0.2031
N       -1.4684  0.1771  -1.3801
N       -1.4816  -0.1914  1.4202
N       1.5060  0.1596  -1.3535
N       1.3620  -0.1735  1.2465
C       -2.7701  0.3795  -0.6733
C       -2.7704  -0.3731  0.6528
C       2.8193  0.3988  -0.6840
C       2.7213  -0.3625  0.6242
H       -1.3119  0.9390  -2.0023
H       -2.8923  1.4400  -0.5228
H       -3.5980  0.0234  -1.2748
H       -3.6127  -0.0560  1.2527
H       -2.8643  -1.4295  0.4776
H       -1.5416  0.6025  2.0436
H       -1.3367  -1.0240  1.9729
H       1.5249  -0.7164  -1.8310
H       1.3283  0.8835  -2.0229
H       3.6408  0.0215  -1.2811
H       2.9514  1.4631  -0.5404
H       2.8254  -1.4227  0.4265
H       3.4787  -0.0733  1.3377
H       1.1565  -1.0073  1.7874
H       1.3877  0.6112  1.8747
H       -1.4822  -0.6807  -1.9116
