27

Co      0.0000  0.0488  0.0034
Cl      0.0002  -2.3179  -0.2229
Cl      -0.0001  2.2506  0.2163
N       -1.4146  0.1646  -1.3709
N       -1.4146  -0.1749  1.3741
N       1.4147  0.1646  -1.3708
N       1.4146  -0.1744  1.3742
C       -2.6922  0.4157  -0.6459
C       -2.6924  -0.4150  0.6425
C       2.6922  0.4157  -0.6460
C       2.6924  -0.4146  0.6427
H       -1.3137  0.7819  -2.1767
H       -2.7728  1.4704  -0.4411
H       -3.5259  0.1157  -1.2600
H       -3.5259  -0.1214  1.2568
H       -2.7734  -1.4697  0.4310
H       -1.4694  0.7423  1.7913
H       -1.2771  -0.8498  2.1055
H       1.4427  -0.8069  -1.7031
H       1.3139  0.7816  -2.1725
H       3.5259  0.1198  -1.2601
H       2.7729  1.4705  -0.4417
H       2.7737  -1.4694  0.4317
H       3.5259  -0.1249  1.2569
H       1.2726  -0.8490  2.1015
H       1.4691  0.7430  1.7910
H       -1.4427  -0.8066  -1.7035
