27

Co      -0.0741  0.0061  -0.0389
Cl      0.0068  -2.2561  -0.2160
Cl      0.0064  2.2520  0.2202
N       -1.4560  0.1178  -1.2966
N       -1.5214  -0.1139  1.3333
N       1.5231  0.1319  -1.3411
N       1.5885  -0.1275  1.3779
C       -2.7459  0.4202  -0.6030
C       -2.7952  -0.4399  0.6398
C       2.8016  0.4221  -0.6024
C       2.8508  -0.4415  0.6393
H       -1.2661  0.8455  -1.9651
H       -2.7279  1.4691  -0.3343
H       -3.5762  0.2478  -1.2741
H       -3.6498  -0.2099  1.2538
H       -2.8063  -1.4929  0.4039
H       -1.5908  0.7757  1.7889
H       -1.3034  -0.8092  2.0260
H       1.6104  -0.7466  -1.8275
H       1.3875  0.8514  -2.0285
H       3.6544  0.2489  -1.2516
H       2.7835  1.4674  -0.3360
H       2.8621  -1.4908  0.4056
H       3.7279  -0.2105  1.2313
H       1.4245  -0.8146  2.0895
H       1.6754  0.7733  1.8279
H       -1.5256  -0.7475  -1.7885
