27

Co      0.0250  0.0427  0.0422
Cl      0.0002  -2.3603  -0.2267
Cl      -0.0001  2.2971  0.2159
N       -1.4525  0.1745  -1.3906
N       -1.4656  -0.1888  1.4307
N       1.4901  0.1608  -1.3640
N       1.3460  -0.1747  1.2569
C       -2.7263  0.4146  -0.6590
C       -2.7266  -0.4082  0.6385
C       2.7755  0.4339  -0.6697
C       2.6775  -0.3976  0.6099
H       -1.3479  0.7961  -2.1854
H       -2.8263  1.4714  -0.4706
H       -3.5669  0.0863  -1.2569
H       -3.5817  -0.1189  1.2348
H       -2.7984  -1.4608  0.4254
H       -1.5341  0.7171  1.8664
H       -1.3727  -0.8811  2.1560
H       1.5137  -0.8311  -1.6575
H       1.3644  0.7443  -2.1978
H       3.6097  0.0851  -1.2633
H       2.8892  1.4907  -0.4920
H       2.7632  -1.4503  0.3780
H       3.4477  -0.1369  1.3198
H       1.1881  -0.8681  1.9624
H       1.3765  0.7259  1.7012
H       -1.4747  -0.7953  -1.7343
