27

Co      0.0000  -0.0488  -0.0034
Cl      0.0002  -2.3039  -0.2217
Cl      -0.0001  2.3713  0.2286
N       -1.5440  0.1304  -1.3155
N       -1.5440  -0.1204  1.3120
N       1.5441  0.1341  -1.3154
N       1.5440  -0.1237  1.3121
C       -2.7602  0.4043  -0.5940
C       -2.7604  -0.4036  0.5974
C       2.7602  0.4043  -0.5941
C       2.7604  -0.4032  0.5976
H       -1.3748  0.8747  -1.9686
H       -2.8016  1.4581  -0.3576
H       -3.6316  0.1567  -1.1815
H       -3.6316  -0.1488  1.1850
H       -2.8023  -1.4546  0.3677
H       -1.6056  0.7819  1.7506
H       -1.4122  -0.8079  2.0389
H       1.6290  -0.7186  -1.8412
H       1.3750  0.8781  -1.9651
H       3.6316  0.1525  -1.1816
H       2.8055  1.4516  -0.3620
H       2.8063  -1.4505  0.3721
H       3.6315  -0.1442  1.1851
H       1.4122  -0.8109  2.0355
H       1.6015  0.7826  1.7540
H       -1.6327  -0.7183  -1.8378
