27

Co      0.0741  0.0488  0.0034
Cl      -0.0063  -2.3514  -0.2171
Cl      -0.0067  2.2841  0.2105
N       -1.4363  0.1692  -1.3187
N       -1.4363  -0.1794  1.3219
N       1.3692  0.1549  -1.2740
N       1.3691  -0.1648  1.2774
C       -2.7671  0.3823  -0.6550
C       -2.7673  -0.3816  0.6517
C       2.7116  0.3803  -0.6559
C       2.7117  -0.3792  0.6526
H       -1.3014  0.9084  -1.9781
H       -2.8846  1.4408  -0.4905
H       -3.5681  0.0423  -1.2995
H       -3.5681  -0.0480  1.2963
H       -2.8853  -1.4401  0.4804
H       -1.4833  0.6389  1.9108
H       -1.2648  -0.9763  1.9069
H       1.3718  -0.7067  -1.7832
H       1.1804  0.9019  -1.9152
H       3.4899  0.0405  -1.3223
H       2.8293  1.4426  -0.4901
H       2.8301  -1.4415  0.4800
H       3.4898  -0.0456  1.3191
H       1.1436  -0.9693  1.8441
H       1.3982  0.6428  1.8711
H       -1.4567  -0.7032  -1.8230
