27

Co      0.0000  0.0488  0.0034
Cl      0.0002  -2.3551  -0.2246
Cl      -0.0001  2.2879  0.2180
N       -1.3665  0.1400  -1.2960
N       -1.3665  -0.1502  1.2992
N       1.3666  0.1399  -1.2959
N       1.3665  -0.1497  1.2993
C       -2.7896  0.3938  -0.6758
C       -2.7899  -0.3931  0.6724
C       2.7897  0.3938  -0.6759
C       2.7898  -0.3927  0.6726
H       -1.3402  0.8282  -2.0558
H       -2.6230  1.4593  -0.4565
H       -3.7084  0.2855  -1.2604
H       -3.7039  -0.2912  1.2617
H       -2.6237  -1.4614  0.4464
H       -1.4707  0.6819  1.8532
H       -1.3036  -0.8961  1.9847
H       1.4485  -0.7465  -1.7649
H       1.3404  0.8279  -2.0561
H       3.7084  0.2851  -1.2606
H       2.6231  1.4621  -0.4571
H       2.6240  -1.4610  0.4471
H       3.7083  -0.2903  1.2574
H       1.3035  -0.8953  1.9850
H       1.4749  0.6827  1.8528
H       -1.4485  -0.7463  -1.7653
