27

Co      0.0000  -0.0427  -0.0422
Cl      0.0002  -2.3131  -0.2197
Cl      -0.0001  2.3764  0.2306
N       -1.5154  0.1258  -1.4197
N       -1.5023  -0.1118  1.3794
N       1.4368  0.1295  -1.3460
N       1.5808  -0.1150  1.4530
C       -2.8149  0.4244  -0.5698
C       -2.8151  -0.4295  0.5903
C       2.7658  0.4097  -0.5503
C       2.8642  -0.4437  0.6102
H       -1.3750  0.8854  -2.0642
H       -2.8336  1.4676  -0.3075
H       -3.6975  0.1853  -1.1531
H       -3.6827  -0.1505  1.1755
H       -2.8628  -1.4767  0.3527
H       -1.5959  0.7887  1.8259
H       -1.3511  -0.8015  2.0927
H       1.5539  -0.6987  -1.9165
H       1.2770  0.9085  -1.9576
H       3.6091  0.1910  -1.1897
H       2.7912  1.4492  -0.2775
H       2.9188  -1.4873  0.3915
H       3.7710  -0.1360  1.1335
H       1.4492  -0.7848  2.1924
H       1.6901  0.8041  1.8735
H       -1.6559  -0.7112  -1.9573
