27

Co      0.0000  0.0000  0.0000
Cl      0.0002  -2.2823  -0.2159
Cl      -0.0001  2.2823  0.2160
N       -1.4473  0.1736  -1.2978
N       -1.4473  -0.1737  1.2977
N       1.4473  0.1735  -1.2978
N       1.4473  -0.1732  1.2978
C       -2.7667  0.4164  -0.6394
C       -2.7670  -0.4157  0.6394
C       2.7668  0.4164  -0.6395
C       2.7669  -0.4153  0.6396
H       -1.3225  0.8086  -2.0817
H       -2.8783  1.4711  -0.4382
H       -3.5621  0.0953  -1.2984
H       -3.5621  -0.0942  1.2986
H       -2.8790  -1.4704  0.4382
H       -1.4787  0.7764  1.6637
H       -1.3229  -0.8091  2.0812
H       1.4789  -0.7771  -1.6630
H       1.3227  0.8083  -2.0775
H       3.5621  0.0994  -1.2986
H       2.8785  1.4711  -0.4388
H       2.8793  -1.4700  0.4388
H       3.5620  -0.0978  1.2987
H       1.3184  -0.8084  2.0772
H       1.4784  0.7772  1.6634
H       -1.4789  -0.7768  -1.6634
