27

Co      0.0000  0.0488  0.0034
Cl      0.0002  -2.3194  -0.2118
Cl      -0.0001  2.2521  0.2051
N       -1.4267  0.1720  -1.3349
N       -1.4267  -0.1822  1.3382
N       1.4268  0.1682  -1.3348
N       1.4267  -0.1780  1.3382
C       -2.7746  0.3696  -0.6686
C       -2.7749  -0.3689  0.6652
C       2.7747  0.3695  -0.6687
C       2.7749  -0.3684  0.6654
H       -1.5014  0.9233  -2.0449
H       -2.8360  1.4367  -0.5378
H       -3.5760  0.0679  -1.3286
H       -3.5715  -0.0736  1.3299
H       -2.8367  -1.4360  0.5277
H       -1.7085  0.5604  2.0263
H       -1.4648  -0.9911  1.9737
H       1.6901  -0.6250  -1.9343
H       1.5015  0.9192  -2.0489
H       3.5760  0.0713  -1.3287
H       2.8324  1.4405  -0.5347
H       2.8332  -1.4394  0.5246
H       3.5759  -0.0764  1.3255
H       1.4647  -0.9866  1.9779
H       1.7165  0.5611  2.0222
H       -1.6864  -0.6247  -1.9385
