27

Co      0.0000  -0.0488  -0.0034
Cl      0.0002  -2.3039  -0.2217
Cl      -0.0001  2.3713  0.2286
N       -1.5718  0.1307  -1.3291
N       -1.5718  -0.1207  1.3256
N       1.5719  0.1344  -1.3290
N       1.5718  -0.1240  1.3256
C       -2.7556  0.4137  -0.5856
C       -2.7559  -0.4130  0.5890
C       2.7557  0.4137  -0.5857
C       2.7559  -0.4126  0.5892
H       -1.1750  0.8831  -1.9037
H       -2.8504  1.4588  -0.3182
H       -3.6381  0.1279  -1.1410
H       -3.6426  -0.1201  1.1400
H       -2.8510  -1.4552  0.3283
H       -1.3926  0.8423  1.6844
H       -1.2125  -0.8163  1.9739
H       1.4115  -0.7790  -1.7749
H       1.1752  0.8865  -1.9002
H       3.6381  0.1238  -1.1411
H       2.8542  1.4522  -0.3226
H       2.8551  -1.4511  0.3327
H       3.6381  -0.1155  1.1446
H       1.2124  -0.8193  1.9705
H       1.3841  0.8430  1.6878
H       -1.4153  -0.7787  -1.7716
