27

Co      -0.0250  0.0061  -0.0389
Cl      0.0002  -2.3396  -0.2231
Cl      -0.0001  2.3356  0.2273
N       -1.4734  0.1092  -1.3105
N       -1.4602  -0.1052  1.2735
N       1.4358  0.1265  -1.3369
N       1.5797  -0.1221  1.4474
C       -2.8197  0.4291  -0.5621
C       -2.8199  -0.4341  0.5793
C       2.7706  0.4098  -0.5517
C       2.8690  -0.4439  0.6082
H       -1.3238  0.8167  -2.0157
H       -2.8572  1.4723  -0.3009
H       -3.6532  0.1794  -1.2039
H       -3.6384  -0.1513  1.2229
H       -2.8864  -1.4814  0.3361
H       -1.5535  0.7824  1.7365
H       -1.2629  -0.8001  1.9734
H       1.5437  -0.7337  -1.8601
H       1.3078  0.8716  -1.9956
H       3.6103  0.1805  -1.1949
H       2.8011  1.4493  -0.2846
H       2.9288  -1.4875  0.3885
H       3.7722  -0.1323  1.1354
H       1.4429  -0.8153  2.1597
H       1.7068  0.7751  1.9047
H       -1.5865  -0.7689  -1.7803
