27

Co      0.0000  -0.0061  0.0389
Cl      0.0002  -2.3194  -0.2233
Cl      -0.0001  2.3236  0.2193
N       -1.4542  0.1370  -1.3127
N       -1.3887  -0.1412  1.2758
N       1.4542  0.1369  -1.3127
N       1.3887  -0.1407  1.2759
C       -2.7601  0.4178  -0.6534
C       -2.7112  -0.3966  0.6166
C       2.7601  0.4178  -0.6535
C       2.7112  -0.3962  0.6168
H       -1.2557  0.8512  -1.9849
H       -2.8302  1.4745  -0.4579
H       -3.5845  0.1221  -1.2802
H       -3.5109  -0.1578  1.3008
H       -2.7531  -1.4493  0.3883
H       -1.4378  0.7144  1.7956
H       -1.2193  -0.8886  1.9231
H       1.5035  -0.7416  -1.7949
H       1.2559  0.8509  -1.9852
H       3.5845  0.1217  -1.2804
H       2.8303  1.4746  -0.4585
H       2.7534  -1.4489  0.3890
H       3.5108  -0.1569  1.3010
H       1.2192  -0.8878  1.9235
H       1.4375  0.7151  1.7953
H       -1.5035  -0.7434  -1.7953
