27

Co      0.0250  -0.0061  0.0389
Cl      0.0002  -2.2874  -0.2180
Cl      -0.0001  2.2916  0.2140
N       -1.5265  0.1522  -1.4149
N       -1.4610  -0.1564  1.3780
N       1.4855  0.1384  -1.3147
N       1.4200  -0.1422  1.2779
C       -2.7909  0.4131  -0.6627
C       -2.7421  -0.3920  0.6259
C       2.7910  0.4176  -0.6537
C       2.7421  -0.3961  0.6170
H       -1.3575  0.8917  -2.0635
H       -2.8494  1.4699  -0.4713
H       -3.6609  0.1193  -1.2347
H       -3.5872  -0.1550  1.2553
H       -2.7723  -1.4446  0.4017
H       -1.5240  0.6833  1.9253
H       -1.3211  -0.9290  2.0017
H       1.5305  -0.7333  -1.8039
H       1.2757  0.8595  -1.9772
H       3.6153  0.1234  -1.2804
H       2.8631  1.4744  -0.4582
H       2.7863  -1.4488  0.3887
H       3.5417  -0.1587  1.3010
H       1.2390  -0.8964  1.9156
H       1.4645  0.7068  1.8043
H       -1.5897  -0.7123  -1.9250
