27

Co      0.0000  0.0000  0.0000
Cl      0.0002  -2.2413  -0.2067
Cl      -0.0001  2.2414  0.2068
N       -1.4209  0.1674  -1.3621
N       -1.4209  -0.1675  1.3620
N       1.4209  0.1636  -1.3620
N       1.4209  -0.1633  1.3620
C       -2.7360  0.3758  -0.6488
C       -2.7362  -0.3751  0.6488
C       2.7360  0.3758  -0.6489
C       2.7362  -0.3747  0.6490
H       -1.4047  0.9682  -1.9825
H       -2.8532  1.4294  -0.4688
H       -3.4600  0.0804  -1.4071
H       -3.4600  -0.0793  1.4073
H       -2.8539  -1.4287  0.4689
H       -1.5361  0.6354  1.9685
H       -1.4051  -0.9687  1.9820
H       1.5401  -0.6360  -1.9640
H       1.4049  0.9641  -1.9865
H       3.4600  0.0838  -1.4073
H       2.8496  1.4332  -0.4657
H       2.8504  -1.4321  0.4658
H       3.4599  -0.0822  1.4074
H       1.4050  -0.9642  1.9862
H       1.5396  0.6361  1.9644
H       -1.5364  -0.6357  -1.9682
