27

Co      0.0000  0.0000  0.0000
Cl      0.0002  -2.2946  -0.2123
Cl      -0.0001  2.2947  0.2124
N       -1.5455  0.1515  -1.3427
N       -1.5455  -0.1517  1.3426
N       1.5455  0.1515  -1.3426
N       1.5455  -0.1512  1.3426
C       -2.8316  0.4080  -0.6217
C       -2.8318  -0.4073  0.6217
C       2.8317  0.4079  -0.6218
C       2.8318  -0.4068  0.6219
H       -1.2998  0.9244  -1.9299
H       -2.9695  1.4491  -0.3778
H       -3.5686  0.1164  -1.3719
H       -3.5731  -0.1153  1.3675
H       -2.9701  -1.4484  0.3778
H       -1.4360  0.7330  1.8291
H       -1.3002  -0.9249  1.9294
H       1.4317  -0.7336  -1.8284
H       1.3000  0.9241  -1.9301
H       3.5685  0.1160  -1.3721
H       2.9696  1.4491  -0.3784
H       2.9704  -1.4480  0.3784
H       3.5685  -0.1145  1.3722
H       1.3001  -0.9242  1.9298
H       1.4312  0.7337  1.8288
H       -1.4317  -0.7333  -1.8288
