27

Co      0.0000  -0.0488  -0.0034
Cl      0.0002  -2.2630  -0.2125
Cl      -0.0001  2.3303  0.2194
N       -1.5622  0.1600  -1.4254
N       -1.4837  -0.1501  1.3483
N       1.4837  0.1600  -1.3517
N       1.5622  -0.1496  1.4220
C       -2.7495  0.3848  -0.6273
C       -2.7007  -0.3694  0.6111
C       2.7005  0.3700  -0.6078
C       2.7497  -0.3837  0.6309
H       -1.4137  0.9484  -2.0295
H       -2.8308  1.4423  -0.4381
H       -3.6530  0.0728  -1.1440
H       -3.5646  -0.0748  1.1868
H       -2.7823  -1.4240  0.4139
H       -1.5190  0.7108  1.8613
H       -1.3530  -0.9012  1.9967
H       1.5462  -0.6475  -1.9481
H       1.3157  0.9677  -1.9267
H       3.5646  0.0822  -1.1834
H       2.7818  1.4248  -0.4044
H       2.8317  -1.4384  0.4489
H       3.6529  -0.0641  1.1477
H       1.4511  -0.8808  2.1001
H       1.6170  0.7262  1.9052
H       -1.6444  -0.6619  -1.9927
