27

Co      0.0000  0.0000  0.0000
Cl      0.0002  -2.2379  -0.2142
Cl      -0.0001  2.2379  0.2143
N       -1.4234  0.1685  -1.3098
N       -1.4234  -0.1686  1.3097
N       1.4234  0.1684  -1.3097
N       1.4234  -0.1681  1.3097
C       -2.7326  0.4181  -0.6394
C       -2.7328  -0.4174  0.6394
C       2.7327  0.4181  -0.6395
C       2.7328  -0.4170  0.6396
H       -1.2986  0.8018  -2.0953
H       -2.8323  1.4728  -0.4330
H       -3.5365  0.1090  -1.2882
H       -3.5364  -0.1079  1.2883
H       -2.8329  -1.4721  0.4330
H       -1.4599  0.7833  1.6722
H       -1.2990  -0.8023  2.0949
H       1.4601  -0.7839  -1.6715
H       1.2988  0.8015  -2.0912
H       3.5364  0.1130  -1.2883
H       2.8324  1.4728  -0.4337
H       2.8332  -1.4717  0.4337
H       3.5364  -0.1114  1.2885
H       1.2945  -0.8015  2.0908
H       1.4596  0.7840  1.6719
H       -1.4602  -0.7836  -1.6719
