27

Co      0.0741  0.0427  0.0422
Cl      -0.0063  -2.3565  -0.2192
Cl      -0.0067  2.2933  0.2084
N       -1.4231  0.1691  -1.3746
N       -1.4362  -0.1834  1.4147
N       1.4345  0.1549  -1.4036
N       1.2905  -0.1688  1.2965
C       -2.7989  0.4081  -0.6938
C       -2.7991  -0.4017  0.6732
C       2.7925  0.4208  -0.7142
C       2.6944  -0.3846  0.6545
H       -1.2431  0.9077  -2.0148
H       -2.8766  1.4658  -0.5213
H       -3.5963  0.1040  -1.3587
H       -3.6111  -0.1367  1.3366
H       -2.8486  -1.4581  0.4761
H       -1.4979  0.6261  2.0131
H       -1.2679  -0.9927  1.9853
H       1.4517  -0.7204  -1.8855
H       1.2203  0.8816  -2.0550
H       3.6065  0.0923  -1.3422
H       2.8703  1.4851  -0.5552
H       2.7443  -1.4448  0.4413
H       3.4444  -0.1441  1.3987
H       1.0484  -1.0054  1.8195
H       1.3145  0.6152  1.9292
H       -1.4384  -0.7043  -1.8811
