27

Co      0.0250  -0.0061  0.0389
Cl      0.0002  -2.2393  -0.2088
Cl      -0.0001  2.2434  0.2048
N       -1.4401  0.2080  -1.4026
N       -1.4532  -0.2122  1.4393
N       1.4777  0.1905  -1.3760
N       1.3337  -0.1943  1.2656
C       -2.7315  0.3901  -0.6761
C       -2.7318  -0.3837  0.6589
C       2.7807  0.4093  -0.6867
C       2.6827  -0.3731  0.6304
H       -1.3226  0.8995  -2.1134
H       -2.8904  1.4506  -0.5259
H       -3.5547  0.0006  -1.2673
H       -3.5694  -0.0265  1.2486
H       -2.8625  -1.4400  0.4908
H       -1.4872  0.6944  1.8800
H       -1.3844  -0.9172  2.1547
H       1.4975  -0.7444  -1.7549
H       1.3390  0.8439  -2.1296
H       3.5975  0.0031  -1.2736
H       2.9495  1.4736  -0.5435
H       2.8236  -1.4333  0.4397
H       3.4354  -0.0481  1.3335
H       1.1998  -0.9004  1.9648
H       1.3333  0.7031  1.7111
H       -1.4547  -0.7086  -1.8355
