27

Co      -0.0741  0.0061  -0.0389
Cl      0.0068  -2.2967  -0.2102
Cl      0.0064  2.2927  0.2144
N       -1.5101  0.1578  -1.3252
N       -1.4970  -0.1538  1.2883
N       1.4987  0.1681  -1.2961
N       1.6427  -0.1637  1.4066
C       -2.8084  0.4045  -0.6412
C       -2.8086  -0.4095  0.6584
C       2.8149  0.3917  -0.6210
C       2.9132  -0.4258  0.6775
H       -1.1787  0.9040  -1.9338
H       -2.8515  1.4620  -0.4397
H       -3.7243  0.1076  -1.1525
H       -3.7095  -0.0795  1.1714
H       -2.8807  -1.4711  0.4749
H       -1.4428  0.7296  1.7670
H       -1.1177  -0.8873  1.8915
H       1.4662  -0.7005  -1.8020
H       1.2018  0.9257  -1.8978
H       3.7141  0.1223  -1.1692
H       2.8542  1.4492  -0.4033
H       2.9818  -1.4874  0.5072
H       3.8760  -0.0741  1.1097
H       1.3370  -0.8694  2.0619
H       1.6293  0.7419  1.8465
H       -1.4758  -0.7160  -1.8109
