27

Co      0.0250  -0.0061  0.0389
Cl      0.0002  -2.2822  -0.2216
Cl      -0.0001  2.2864  0.2176
N       -1.4149  0.1480  -1.3818
N       -1.4280  -0.1522  1.4185
N       1.4525  0.1343  -1.3552
N       1.3085  -0.1381  1.2448
C       -2.7011  0.4029  -0.6710
C       -2.7014  -0.3965  0.6538
C       2.7503  0.4222  -0.6816
C       2.6523  -0.3859  0.6253
H       -1.3067  0.8712  -2.0716
H       -2.6727  1.4733  -0.5059
H       -3.6495  0.1477  -1.1501
H       -3.6597  -0.1736  1.1359
H       -2.6447  -1.4627  0.4708
H       -1.6642  0.6667  1.9821
H       -1.3685  -0.8889  2.1129
H       1.6752  -0.7166  -1.8607
H       1.3231  0.8194  -2.0885
H       3.6923  0.1420  -1.1565
H       2.7355  1.4926  -0.5273
H       2.6096  -1.4522  0.4234
H       3.5302  -0.1871  1.2164
H       1.1883  -0.8759  1.9237
H       1.5111  0.6754  1.8169
H       -1.6362  -0.6809  -1.9376
