27

Co      0.0000  0.0000  0.0000
Cl      0.0002  -2.3018  -0.2123
Cl      -0.0001  2.3019  0.2124
N       -1.6160  0.1612  -1.4369
N       -1.5375  -0.1613  1.3632
N       1.5375  0.1611  -1.3632
N       1.6160  -0.1608  1.4369
C       -2.8514  0.4178  -0.6460
C       -2.8025  -0.4024  0.6263
C       2.8024  0.4030  -0.6265
C       2.8516  -0.4167  0.6462
H       -1.2321  0.9240  -1.9979
H       -2.9627  1.4638  -0.4191
H       -3.7313  0.0920  -1.1950
H       -3.6474  -0.1008  1.2299
H       -2.9143  -1.4483  0.3848
H       -1.3405  0.7355  1.8352
H       -1.1343  -0.9442  1.8943
H       1.3362  -0.7361  -1.8345
H       1.1341  0.9433  -1.8950
H       3.6429  0.1015  -1.2344
H       2.9138  1.4491  -0.3854
H       2.9637  -1.4627  0.4198
H       3.7312  -0.0901  1.1953
H       1.2324  -0.9238  1.9977
H       1.4339  0.7510  1.8790
H       -1.4344  -0.7506  -1.8790
