27

Co      0.0250  -0.0061  0.0389
Cl      0.0002  -2.3266  -0.2233
Cl      -0.0001  2.3307  0.2193
N       -1.4962  0.1486  -1.4202
N       -1.4307  -0.1528  1.3833
N       1.4552  0.1349  -1.3200
N       1.3897  -0.1387  1.2832
C       -2.7553  0.4131  -0.6627
C       -2.7064  -0.3920  0.6259
C       2.7553  0.4176  -0.6537
C       2.7064  -0.3961  0.6170
H       -1.3254  0.8863  -2.0688
H       -2.8066  1.4699  -0.4695
H       -3.6288  0.1246  -1.2311
H       -3.5552  -0.1603  1.2517
H       -2.7296  -1.4446  0.4000
H       -1.4937  0.6886  1.9289
H       -1.2890  -0.9237  2.0070
H       1.5002  -0.7386  -1.8075
H       1.2436  0.8541  -1.9826
H       3.5833  0.1288  -1.2768
H       2.8204  1.4744  -0.4564
H       2.7435  -1.4488  0.3870
H       3.5096  -0.1640  1.2974
H       1.2070  -0.8910  1.9209
H       1.4343  0.7121  1.8079
H       -1.5594  -0.7176  -1.9285
