27

Co      -0.0741  0.0061  -0.0389
Cl      0.0068  -2.3039  -0.2102
Cl      0.0064  2.2998  0.2144
N       -1.5191  0.1537  -1.3594
N       -1.5845  -0.1497  1.3961
N       1.5863  0.1640  -1.4039
N       1.6516  -0.1596  1.4407
C       -2.7615  0.4338  -0.6224
C       -2.8108  -0.4535  0.6592
C       2.8172  0.4357  -0.6219
C       2.8664  -0.4551  0.6587
H       -1.0176  0.9294  -1.8736
H       -2.9729  1.4777  -0.4074
H       -3.5550  0.0393  -1.2535
H       -3.6331  -0.0014  1.2287
H       -3.0512  -1.5015  0.4770
H       -1.5033  0.7458  1.8556
H       -1.0548  -0.8931  1.9344
H       1.5222  -0.7167  -1.8905
H       1.1390  0.9315  -1.9407
H       3.6332  0.0442  -1.2310
H       3.0247  1.4797  -0.4054
H       3.1032  -1.5032  0.4749
H       3.7067  -0.0058  1.2107
H       1.1759  -0.8948  2.0017
H       1.5871  0.7434  1.8909
H       -1.4336  -0.7175  -1.8553
