27

Co      0.0000  0.0000  0.0000
Cl      0.0002  -2.2451  -0.2142
Cl      -0.0001  2.2451  0.2143
N       -1.4735  0.1818  -1.3558
N       -1.4735  -0.1819  1.3557
N       1.4736  0.1818  -1.3557
N       1.4735  -0.1815  1.3557
C       -2.7049  0.4157  -0.6900
C       -2.7051  -0.4150  0.6899
C       2.7050  0.4157  -0.6901
C       2.7051  -0.4146  0.6902
H       -1.3302  0.8266  -2.1189
H       -2.7469  1.4762  -0.4836
H       -3.5351  0.1738  -1.3305
H       -3.5351  -0.1727  1.3307
H       -2.7475  -1.4754  0.4836
H       -1.4776  0.7632  1.7269
H       -1.3306  -0.8272  2.1184
H       1.4779  -0.7638  -1.7261
H       1.3303  0.8263  -2.1147
H       3.5351  0.1779  -1.3335
H       2.7441  1.4762  -0.4842
H       2.7449  -1.4751  0.4842
H       3.5350  -0.1763  1.3337
H       1.3261  -0.8264  2.1143
H       1.4774  0.7639  1.7265
H       -1.4779  -0.7636  -1.7265
