27

Co      0.0000  -0.0061  0.0389
Cl      0.0002  -2.2765  -0.2105
Cl      -0.0001  2.2806  0.2065
N       -1.4108  0.1766  -1.3145
N       -1.3454  -0.1808  1.2776
N       1.4108  0.1727  -1.3144
N       1.3453  -0.1765  1.2776
C       -2.8535  0.3778  -0.7112
C       -2.8047  -0.3567  0.6744
C       2.8536  0.3778  -0.7114
C       2.8047  -0.3562  0.6746
H       -1.3571  0.9200  -2.0008
H       -2.7721  1.4491  -0.5517
H       -3.7585  0.1677  -1.2708
H       -3.6804  -0.2034  1.2960
H       -2.6950  -1.4266  0.4822
H       -1.4098  0.6381  1.8583
H       -1.3208  -0.9574  1.9390
H       1.4838  -0.6653  -1.8538
H       1.3573  0.9160  -2.0048
H       3.7585  0.1711  -1.2710
H       2.7684  1.4556  -0.5486
H       2.6916  -1.4300  0.4791
H       3.6848  -0.2063  1.2916
H       1.3207  -0.9529  1.9431
H       1.4178  0.6388  1.8542
H       -1.4800  -0.6670  -1.8580
