27

Co      -0.0490  0.0061  -0.0389
Cl      0.0068  -2.3024  -0.2214
Cl      0.0064  2.2984  0.2255
N       -1.5226  0.1198  -1.4061
N       -1.5880  -0.1159  1.4428
N       1.5488  0.1202  -1.3505
N       1.6142  -0.1159  1.3873
C       -2.6514  0.4293  -0.5732
C       -2.7007  -0.4490  0.6100
C       2.7071  0.4358  -0.5635
C       2.7563  -0.4551  0.6004
H       -1.2194  0.8829  -1.9881
H       -2.8299  1.4674  -0.3158
H       -3.4278  0.1073  -1.2531
H       -3.5059  -0.0694  1.2283
H       -2.9083  -1.4884  0.3854
H       -1.6297  0.7701  1.9119
H       -1.2566  -0.8467  2.0490
H       1.5857  -0.7638  -1.8299
H       1.2588  0.8570  -1.9650
H       3.4604  0.1129  -1.2761
H       2.8992  1.4674  -0.3038
H       2.9777  -1.4909  0.3734
H       3.5340  -0.0746  1.2558
H       1.2958  -0.8202  2.0260
H       1.6506  0.7904  1.8303
H       -1.5600  -0.7418  -1.9116
