27

Co      0.0000  0.0000  0.0000
Cl      0.0002  -2.2733  -0.2121
Cl      -0.0001  2.2734  0.2122
N       -1.3214  0.1684  -1.2596
N       -1.4000  -0.1685  1.3332
N       1.4000  0.1646  -1.3332
N       1.3214  -0.1643  1.2596
C       -2.6851  0.3712  -0.6620
C       -2.7344  -0.3852  0.6816
C       2.7343  0.3858  -0.6817
C       2.6853  -0.3700  0.6622
H       -1.2036  0.9257  -1.9121
H       -2.7248  1.4432  -0.5233
H       -3.5496  0.0662  -1.2281
H       -3.6334  -0.0553  1.1935
H       -2.7746  -1.4572  0.5576
H       -1.5960  0.6505  1.9013
H       -1.3022  -0.9066  2.0147
H       1.6045  -0.6511  -1.8969
H       1.3020  0.9021  -2.0192
H       3.6380  0.0597  -1.1890
H       2.7703  1.4617  -0.5545
H       2.7220  -1.4458  0.5202
H       3.5495  -0.0680  1.2284
H       1.2039  -0.9218  1.9157
H       1.5059  0.6365  1.8531
H       -1.5026  -0.6361  -1.8568
