27

Co      0.0000  -0.0488  -0.0034
Cl      0.0002  -2.2610  -0.2089
Cl      -0.0001  2.3284  0.2157
N       -1.5764  0.1660  -1.3676
N       -1.4979  -0.1560  1.2905
N       1.4979  0.1659  -1.2939
N       1.5764  -0.1555  1.3642
C       -2.8607  0.4157  -0.6576
C       -2.8118  -0.4002  0.6413
C       2.8117  0.4009  -0.6381
C       2.8609  -0.4145  0.6612
H       -1.2391  0.9204  -1.9625
H       -2.9162  1.4752  -0.4681
H       -3.8002  0.0952  -1.1292
H       -3.7118  -0.0971  1.1720
H       -2.8677  -1.4598  0.4438
H       -1.4409  0.7457  1.7422
H       -1.1784  -0.8733  1.9297
H       1.4681  -0.6823  -1.8291
H       1.1411  0.9398  -1.8597
H       3.7118  0.1046  -1.1686
H       2.8672  1.4605  -0.4344
H       2.9171  -1.4741  0.4789
H       3.8001  -0.0865  1.1329
H       1.2765  -0.8529  2.0331
H       1.5388  0.7611  1.7861
H       -1.5663  -0.6968  -1.8736
