27

Co      0.0000  0.0000  0.0000
Cl      0.0002  -2.2341  -0.2067
Cl      -0.0001  2.2342  0.2068
N       -1.3236  0.1692  -1.2712
N       -1.4021  -0.1693  1.3447
N       1.4021  0.1653  -1.3448
N       1.3235  -0.1650  1.2711
C       -2.7573  0.3965  -0.6873
C       -2.8067  -0.4105  0.7069
C       2.8065  0.4112  -0.7071
C       2.7576  -0.3954  0.6875
H       -1.1793  0.9198  -1.9236
H       -2.7620  1.4657  -0.5335
H       -3.5958  0.1312  -1.3077
H       -3.6796  -0.1203  1.2731
H       -2.8117  -1.4825  0.5679
H       -1.5982  0.6536  1.9062
H       -1.2779  -0.9007  2.0263
H       1.6067  -0.6542  -1.9017
H       1.2777  0.8961  -2.0307
H       3.6841  0.1248  -1.2686
H       2.8074  1.4870  -0.5647
H       2.7592  -1.4712  0.5304
H       3.5957  -0.1330  1.3080
H       1.1797  -0.9158  1.9273
H       1.5080  0.6396  1.8579
H       -1.5048  -0.6392  -1.8617
