27

Co      -0.0250  0.0061  -0.0389
Cl      0.0002  -2.2595  -0.2085
Cl      -0.0001  2.2555  0.2127
N       -1.5433  0.1203  -1.3715
N       -1.5302  -0.1163  1.3346
N       1.5058  0.1339  -1.3980
N       1.6497  -0.1295  1.5084
C       -2.7971  0.4027  -0.6186
C       -2.7973  -0.4077  0.6358
C       2.7481  0.3834  -0.6082
C       2.8464  -0.4175  0.6647
H       -1.0957  0.9860  -1.8048
H       -2.8404  1.4467  -0.3592
H       -3.6638  0.1662  -1.2134
H       -3.6535  -0.1381  1.2278
H       -2.8696  -1.4557  0.3943
H       -1.3470  0.7149  1.9106
H       -1.0348  -0.9694  1.7626
H       1.3364  -0.6662  -2.0305
H       1.0797  1.0372  -1.7929
H       3.6209  0.1667  -1.2072
H       2.7777  1.4274  -0.3391
H       2.9054  -1.4656  0.4430
H       3.7828  -0.1185  1.1477
H       1.2192  -0.9809  1.9570
H       1.4995  0.7076  2.0751
H       -1.3755  -0.7014  -1.9545
