27

Co      0.0000  -0.0488  -0.0034
Cl      0.0002  -2.2166  -0.2072
Cl      -0.0001  2.2840  0.2140
N       -1.5216  0.1515  -1.3563
N       -1.5216  -0.1415  1.3528
N       1.5216  0.1514  -1.3562
N       1.5216  -0.1410  1.3529
C       -2.7975  0.4097  -0.6200
C       -2.7977  -0.4090  0.6233
C       2.7975  0.4097  -0.6201
C       2.7977  -0.4086  0.6236
H       -1.2574  0.9512  -1.9082
H       -2.9234  1.4508  -0.3676
H       -3.5430  0.1334  -1.3600
H       -3.5474  -0.1256  1.3590
H       -2.9240  -1.4501  0.3777
H       -1.4038  0.7718  1.7939
H       -1.2948  -0.8844  1.9784
H       1.4264  -0.7085  -1.8807
H       1.2576  0.9509  -1.9084
H       3.5429  0.1331  -1.3601
H       2.9235  1.4508  -0.3682
H       2.9243  -1.4497  0.3784
H       3.5429  -0.1248  1.3637
H       1.2947  -0.8837  1.9788
H       1.3990  0.7725  1.7936
H       -1.4264  -0.7082  -1.8811
