27

Co      0.0741  0.0488  0.0034
Cl      -0.0063  -2.3122  -0.2118
Cl      -0.0067  2.2449  0.2051
N       -1.4665  0.1727  -1.3133
N       -1.4665  -0.1829  1.3166
N       1.3994  0.1585  -1.2687
N       1.3994  -0.1683  1.2721
C       -2.8027  0.3823  -0.6550
C       -2.8029  -0.3816  0.6517
C       2.7472  0.3803  -0.6559
C       2.7473  -0.3792  0.6526
H       -1.3335  0.9137  -1.9727
H       -2.9274  1.4408  -0.4923
H       -3.6002  0.0370  -1.3031
H       -3.6001  -0.0426  1.2999
H       -2.9280  -1.4401  0.4822
H       -1.5136  0.6336  1.9072
H       -1.2969  -0.9816  1.9016
H       1.4021  -0.7013  -1.7796
H       1.2125  0.9072  -1.9098
H       3.5219  0.0351  -1.3259
H       2.8720  1.4426  -0.4919
H       2.8729  -1.4415  0.4818
H       3.5219  -0.0403  1.3227
H       1.1756  -0.9746  1.8388
H       1.4285  0.6374  1.8675
H       -1.4869  -0.6979  -1.8194
