27

Co      0.0250  -0.0061  0.0389
Cl      0.0002  -2.3157  -0.2158
Cl      -0.0001  2.3198  0.2118
N       -1.3758  0.2088  -1.3250
N       -1.3889  -0.2130  1.3618
N       1.4134  0.1913  -1.2984
N       1.2693  -0.1951  1.1880
C       -2.7523  0.3468  -0.6753
C       -2.7526  -0.3404  0.6582
C       2.8015  0.3661  -0.6860
C       2.7035  -0.3298  0.6296
H       -1.5719  0.8950  -2.1380
H       -2.7624  1.4160  -0.5250
H       -3.5763  0.0897  -1.3235
H       -3.5865  -0.1156  1.3093
H       -2.7344  -1.4055  0.4898
H       -1.5370  0.6598  1.8523
H       -1.6337  -0.9127  2.1793
H       1.5518  -0.7098  -1.7272
H       1.5883  0.8395  -2.1542
H       3.6191  0.0922  -1.3299
H       2.8215  1.4391  -0.5426
H       2.6955  -1.3987  0.4387
H       3.4571  -0.1373  1.3897
H       1.4490  -0.8960  1.9894
H       1.3876  0.6686  1.6834
H       -1.5090  -0.6741  -1.8078
