27

Co      0.0000  0.0000  0.0000
Cl      0.0002  -2.2966  -0.2159
Cl      -0.0001  2.2967  0.2160
N       -1.5497  0.1461  -1.4005
N       -1.5497  -0.1463  1.4004
N       1.5497  0.1461  -1.4004
N       1.5496  -0.1458  1.4004
C       -2.7075  0.4165  -0.6054
C       -2.7077  -0.4158  0.6054
C       2.7076  0.4165  -0.6056
C       2.7077  -0.4154  0.6056
H       -1.2424  0.9210  -1.9640
H       -2.9689  1.4605  -0.4061
H       -3.4622  -0.0037  -1.2730
H       -3.4667  0.0047  1.2687
H       -2.9696  -1.4569  0.4061
H       -1.5667  0.7094  1.9218
H       -1.2429  -0.9216  1.9635
H       1.5625  -0.7100  -1.9211
H       1.2426  0.9207  -1.9642
H       3.4621  -0.0040  -1.2732
H       2.9690  1.4577  -0.4067
H       2.9699  -1.4566  0.4068
H       3.4621  0.0056  1.2733
H       1.2428  -0.9208  1.9639
H       1.5619  0.7101  1.9215
H       -1.5625  -0.7098  -1.9215
