27

Co      0.0000  0.0488  0.0034
Cl      0.0002  -2.2678  -0.2101
Cl      -0.0001  2.2005  0.2034
N       -1.4091  0.1624  -1.3030
N       -1.4091  -0.1726  1.3063
N       1.4091  0.1586  -1.3029
N       1.4091  -0.1684  1.3063
C       -2.7408  0.3830  -0.6554
C       -2.7410  -0.3823  0.6520
C       2.7408  0.3830  -0.6555
C       2.7410  -0.3819  0.6522
H       -1.2490  0.9057  -1.9529
H       -2.8554  1.4415  -0.4885
H       -3.5354  0.0480  -1.3042
H       -3.5354  -0.0537  1.3010
H       -2.8561  -1.4408  0.4784
H       -1.4505  0.6420  1.8968
H       -1.2124  -0.9736  1.8818
H       1.4276  -0.7066  -1.8048
H       1.2492  0.9016  -1.9569
H       3.5354  0.0514  -1.3043
H       2.8518  1.4453  -0.4854
H       2.8526  -1.4442  0.4753
H       3.5354  -0.0565  1.3011
H       1.2123  -0.9690  1.8859
H       1.4540  0.6427  1.8927
H       -1.4239  -0.7063  -1.8090
