27

Co      0.0250  0.0000  0.0000
Cl      0.0002  -2.2771  -0.2195
Cl      -0.0001  2.2771  0.2196
N       -1.3788  0.1407  -1.3195
N       -1.4573  -0.1409  1.3931
N       1.4163  0.1270  -1.2929
N       1.3377  -0.1267  1.2193
C       -2.6768  0.3996  -0.6297
C       -2.7262  -0.4137  0.6493
C       2.7260  0.4189  -0.6404
C       2.6771  -0.4030  0.6208
H       -1.2053  0.8886  -1.9596
H       -2.7139  1.4543  -0.4076
H       -3.5007  0.1568  -1.2771
H       -3.5890  -0.1459  1.2379
H       -2.7636  -1.4683  0.4420
H       -1.5304  0.7315  1.8877
H       -1.3039  -0.8695  2.0622
H       1.4715  -0.7549  -1.7664
H       1.2217  0.8368  -1.9764
H       3.5435  0.1511  -1.2835
H       2.7767  1.4736  -0.4290
H       2.7285  -1.4578  0.3946
H       3.4551  -0.1594  1.3229
H       1.1237  -0.8565  1.8730
H       1.3728  0.7402  1.7226
H       -1.4325  -0.7171  -1.8432
