27

Co      -0.0741  -0.0427  -0.0422
Cl      0.0068  -2.2650  -0.2105
Cl      0.0064  2.3283  0.2214
N       -1.5140  0.1524  -1.3983
N       -1.5009  -0.1383  1.3580
N       1.5026  0.1627  -1.3692
N       1.6466  -0.1482  1.4763
C       -2.6927  0.3781  -0.5912
C       -2.6929  -0.3831  0.6117
C       2.6992  0.3653  -0.5710
C       2.7975  -0.3994  0.6309
H       -1.2804  0.9836  -1.9247
H       -2.8294  1.4200  -0.3459
H       -3.4866  0.0840  -1.2560
H       -3.4763  -0.0492  1.2738
H       -2.8586  -1.4263  0.3912
H       -1.3673  0.7629  1.8197
H       -1.2565  -0.8997  1.9532
H       1.4131  -0.6698  -1.9422
H       1.3036  1.0054  -1.8888
H       3.4764  0.0987  -1.2728
H       2.8321  1.4045  -0.3095
H       2.9597  -1.4426  0.4235
H       3.6383  -0.0438  1.2166
H       1.4758  -0.8817  2.1236
H       1.5493  0.7752  1.8992
H       -1.4227  -0.6854  -1.9511
