27

Co      0.0000  0.0427  0.0422
Cl      0.0002  -2.2767  -0.2196
Cl      -0.0001  2.2135  0.2089
N       -1.5107  0.1437  -1.3636
N       -1.4452  -0.1581  1.3301
N       1.5107  0.1437  -1.3636
N       1.4452  -0.1576  1.3301
C       -2.7339  0.4171  -0.7056
C       -2.6850  -0.3959  0.6654
C       2.7340  0.4171  -0.7057
C       2.6850  -0.3955  0.6656
H       -1.3140  0.8410  -2.0521
H       -2.7415  1.4796  -0.5101
H       -3.5896  0.1919  -1.3175
H       -3.5160  -0.2343  1.3348
H       -2.6644  -1.4543  0.4305
H       -1.4805  0.6638  1.8990
H       -1.2406  -0.9456  1.9196
H       1.5193  -0.7550  -1.8107
H       1.3142  0.8407  -2.0523
H       3.5896  0.1915  -1.3205
H       2.7387  1.4796  -0.5107
H       2.6618  -1.4539  0.4312
H       3.5159  -0.2335  1.3378
H       1.2405  -0.9449  1.9200
H       1.4802  0.6645  1.8986
H       -1.5193  -0.7567  -1.8111
