27

Co      0.0741  0.0427  0.0422
Cl      -0.0063  -2.3531  -0.2267
Cl      -0.0067  2.2899  0.2159
N       -1.4207  0.1368  -1.2829
N       -1.4338  -0.1511  1.3230
N       1.4321  0.1263  -1.3119
N       1.2881  -0.1402  1.2049
C       -2.7678  0.4020  -0.6533
C       -2.7681  -0.3956  0.6327
C       2.7614  0.4147  -0.6737
C       2.6634  -0.3785  0.6140
H       -1.4855  0.8202  -2.0671
H       -2.7828  1.4675  -0.4838
H       -3.5729  0.1550  -1.3307
H       -3.5831  -0.1877  1.3132
H       -2.7548  -1.4570  0.4385
H       -1.7576  0.6278  1.9467
H       -1.5102  -0.9053  2.0377
H       1.7122  -0.7221  -1.8228
H       1.4627  0.7979  -2.1036
H       3.5830  0.1396  -1.3142
H       2.7802  1.4803  -0.5214
H       2.6543  -1.4399  0.4075
H       3.4210  -0.1914  1.3707
H       1.2908  -0.9217  1.8681
H       1.5750  0.6169  1.8665
H       -1.7027  -0.7060  -1.8147
