27

Co      -0.0290  -0.0257  -0.0178
Cl      -1.0907  1.6268  -1.2154
Cl      1.1951  1.5003  1.4071
C       2.6841  -0.7213  -0.8118
C       2.1518  -1.9520  -0.1157
C       -2.5359  -1.3036  -0.4437
C       -2.4237  -1.1695  1.0600
N       1.4946  0.0369  -1.3002
N       1.0603  -1.4789  0.8000
N       -1.1370  -1.3167  -0.9851
N       -1.4709  -0.0603  1.3088
H       2.9201  -2.4632  0.4507
H       1.7351  -2.6554  -0.8212
H       -3.0391  -0.4525  -0.8672
H       -3.0621  -2.1987  -0.7390
H       1.7075  1.0187  -1.3632
H       1.2378  -0.2481  -2.2237
H       -1.9205  0.8312  1.1977
H       -1.1121  -0.0669  2.2458
H       -2.0281  -2.0703  1.5062
H       -3.3800  -0.9745  1.5124
H       0.5518  -2.2617  1.1609
H       1.4832  -1.0217  1.5888
H       3.3485  -0.9688  -1.6214
H       3.2130  -0.0883  -0.1187
H       -0.7659  -2.2493  -0.9412
H       -1.1680  -1.0530  -1.9527
