27

Co      0.0241  0.0200  0.0118
Cl      -1.0947  1.6261  -1.2290
Cl      1.1339  1.4101  1.3384
C       2.6618  -0.7023  -0.8224
C       2.1184  -1.9256  -0.0998
C       -2.5024  -1.3049  -0.4418
C       -2.4353  -1.1604  1.0689
N       1.5091  0.0692  -1.3560
N       1.0494  -1.5108  0.8623
N       -1.1129  -1.3373  -1.0133
N       -1.4953  -0.0518  1.3881
H       2.9061  -2.4543  0.4076
H       1.6714  -2.6062  -0.8096
H       -2.9934  -0.4500  -0.8713
H       -3.0499  -2.1893  -0.7237
H       1.7369  1.0377  -1.4826
H       1.2166  -0.2707  -2.2542
H       -1.9443  0.8414  1.3037
H       -1.1518  -0.1050  2.3276
H       -2.0638  -2.0633  1.5333
H       -3.4204  -0.9747  1.4696
H       0.4887  -2.3070  1.1126
H       1.4591  -1.1563  1.7090
H       3.3357  -1.0024  -1.6093
H       3.1983  -0.0640  -0.1438
H       -0.7615  -2.2729  -1.0143
H       -1.1593  -1.0302  -1.9652
