27

Co      0.0055  0.0306  0.0085
Cl      -1.0757  1.5942  -1.2133
Cl      1.1211  1.3813  1.3194
C       2.6375  -0.6943  -0.8157
C       2.1135  -1.9262  -0.0925
C       -2.4869  -1.3086  -0.4492
C       -2.4054  -1.1289  1.0594
N       1.4856  0.0880  -1.3305
N       1.0737  -1.5108  0.8944
N       -1.1124  -1.3197  -1.0527
N       -1.4573  -0.0321  1.3876
H       2.9178  -2.4570  0.3857
H       1.6468  -2.6038  -0.7932
H       -3.0142  -0.4829  -0.8930
H       -3.0160  -2.2153  -0.6885
H       1.7194  1.0557  -1.4378
H       1.1928  -0.2335  -2.2352
H       -1.9001  0.8707  1.3549
H       -1.0834  -0.1258  2.3117
H       -2.0406  -2.0306  1.5318
H       -3.3895  -0.9328  1.4601
H       0.5425  -2.3062  1.1902
H       1.5040  -1.1179  1.7108
H       3.3011  -0.9838  -1.6165
H       3.1837  -0.0649  -0.1380
H       -0.7507  -2.2493  -1.0780
H       -1.1773  -0.9863  -1.9944
