27

Co      0.0058  0.0301  0.0037
Cl      -1.0712  1.5845  -1.2005
Cl      1.1352  1.3991  1.3386
C       2.6147  -0.7007  -0.7765
C       2.0917  -1.9004  -0.1030
C       -2.5094  -1.3048  -0.4508
C       -2.3991  -1.1446  1.0461
N       1.4829  0.0572  -1.3278
N       1.0989  -1.4846  0.8490
N       -1.1317  -1.3190  -1.0233
N       -1.4560  -0.0412  1.3425
H       2.8955  -2.4567  0.3548
H       1.6267  -2.5526  -0.8301
H       -3.0270  -0.4659  -0.8785
H       -3.0436  -2.2020  -0.7085
H       1.7279  1.0203  -1.4810
H       1.2043  -0.3079  -2.2211
H       -1.9082  0.8559  1.2945
H       -1.0857  -0.1136  2.2676
H       -2.0148  -2.0463  1.5045
H       -3.3714  -0.9555  1.4758
H       0.5793  -2.2745  1.1730
H       1.5331  -1.0693  1.6506
H       3.2841  -1.0197  -1.5598
H       3.1612  -0.0664  -0.1041
H       -0.7668  -2.2485  -0.9962
H       -1.1787  -1.0355  -1.9823
