27

Co      0.0279  0.0185  0.0064
Cl      -1.0934  1.6148  -1.2186
Cl      1.1514  1.4323  1.3548
C       2.6504  -0.7055  -0.8244
C       2.1279  -1.9322  -0.0929
C       -2.5455  -1.3190  -0.4475
C       -2.4232  -1.1566  1.0569
N       1.4968  0.0850  -1.3285
N       1.0745  -1.5177  0.8842
N       -1.1679  -1.3597  -1.0498
N       -1.4806  -0.0435  1.3485
H       2.9322  -2.4526  0.4004
H       1.6730  -2.6206  -0.7910
H       -3.0536  -0.4733  -0.8769
H       -3.0997  -2.2103  -0.6962
H       1.7355  1.0546  -1.4300
H       1.1975  -0.2268  -2.2317
H       -1.9326  0.8485  1.2597
H       -1.1339  -0.0878  2.2865
H       -2.0308  -2.0555  1.5089
H       -3.3922  -0.9728  1.4945
H       0.5254  -2.3127  1.1549
H       1.4933  -1.1426  1.7157
H       3.3044  -0.9995  -1.6304
H       3.2084  -0.0748  -0.1534
H       -0.8274  -2.3001  -1.0703
H       -1.2259  -1.0376  -1.9974
