27

Co      -0.0021  -0.0181  0.0033
Cl      -1.1023  1.6322  -1.2290
Cl      1.1723  1.4626  1.3723
C       2.7148  -0.7124  -0.8319
C       2.1776  -1.9948  -0.0850
C       -2.5740  -1.3428  -0.4580
C       -2.4411  -1.1667  1.0681
N       1.4716  0.0867  -1.2850
N       1.0723  -1.4730  0.8472
N       -1.1675  -1.2929  -1.0143
N       -1.4471  -0.0481  1.3019
H       2.9136  -2.5613  0.4710
H       1.7102  -2.6611  -0.8007
H       -3.1033  -0.5006  -0.8728
H       -3.0756  -2.2510  -0.7599
H       1.6752  1.0716  -1.3296
H       1.1934  -0.1790  -2.2092
H       -1.8902  0.8496  1.2006
H       -1.0843  -0.0627  2.2378
H       -2.0688  -2.0598  1.5499
H       -3.3876  -0.9194  1.5253
H       0.5241  -2.2276  1.2165
H       1.5097  -1.0155  1.6294
H       3.3219  -0.9503  -1.6954
H       3.2878  -0.0759  -0.1751
H       -0.7813  -2.2178  -1.0456
H       -1.2072  -0.9484  -1.9552
