27

Co      -0.0053  -0.0328  0.0005
Cl      -1.0999  1.6394  -1.2326
Cl      1.1715  1.4678  1.3780
C       2.6728  -0.7140  -0.8188
C       2.1397  -1.9381  -0.1045
C       -2.5291  -1.3209  -0.4394
C       -2.4367  -1.1522  1.0640
N       1.4918  0.0545  -1.2973
N       1.0580  -1.4700  0.8218
N       -1.1328  -1.2879  -0.9969
N       -1.4549  -0.0688  1.3172
H       2.9115  -2.4517  0.4485
H       1.7090  -2.6404  -0.8037
H       -3.0703  -0.5024  -0.8797
H       -3.0179  -2.2452  -0.7128
H       1.7033  1.0352  -1.3528
H       1.2227  -0.2231  -2.2203
H       -1.8828  0.8345  1.2071
H       -1.1078  -0.0886  2.2576
H       -2.0849  -2.0565  1.5409
H       -3.3984  -0.9136  1.4885
H       0.5383  -2.2531  1.1644
H       1.4832  -1.0303  1.6190
H       3.3204  -0.9833  -1.6363
H       3.2247  -0.0864  -0.1417
H       -0.7617  -2.2177  -1.0286
H       -1.1839  -0.9525  -1.9397
