27

Co      -0.0175  -0.0079  -0.0321
Cl      -1.0886  1.6205  -1.2112
Cl      1.1930  1.4960  1.4049
C       2.6934  -0.7070  -0.8092
C       2.1748  -2.0155  -0.0956
C       -2.5602  -1.3213  -0.4580
C       -2.4360  -1.1864  1.0708
N       1.4466  0.0705  -1.2989
N       1.0648  -1.5055  0.8365
N       -1.1419  -1.3099  -0.9784
N       -1.4580  -0.0533  1.3010
H       2.9223  -2.5717  0.4584
H       1.7264  -2.6817  -0.8214
H       -3.0436  -0.4420  -0.8572
H       -3.0923  -2.1974  -0.8026
H       1.6511  1.0548  -1.3643
H       1.1874  -0.2171  -2.2218
H       -1.9174  0.8365  1.2097
H       -1.0734  -0.0633  2.2289
H       -2.0436  -2.0805  1.5326
H       -3.3833  -0.9650  1.5363
H       0.5256  -2.2598  1.2199
H       1.4981  -1.0341  1.6131
H       3.3450  -0.9019  -1.6488
H       3.2102  -0.0587  -0.1177
H       -0.7459  -2.2331  -0.9048
H       -1.1597  -1.0671  -1.9542
