27

Co      0.0012  0.0057  -0.0042
Cl      -1.0851  1.6162  -1.2183
Cl      1.1554  1.4405  1.3645
C       2.6134  -0.7121  -0.8073
C       2.1007  -1.8854  -0.1154
C       -2.4879  -1.2942  -0.4299
C       -2.4119  -1.1362  1.0528
N       1.5169  0.0479  -1.3320
N       1.0730  -1.5196  0.8559
N       -1.1234  -1.3469  -1.0363
N       -1.4846  -0.0583  1.3725
H       2.9428  -2.3508  0.3759
H       1.6845  -2.6106  -0.7960
H       -3.0128  -0.4761  -0.8878
H       -3.0253  -2.2046  -0.6470
H       1.7646  1.0144  -1.4318
H       1.2375  -0.2650  -2.2408
H       -1.9223  0.8412  1.3015
H       -1.1339  -0.1264  2.3073
H       -2.0400  -2.0453  1.5018
H       -3.3990  -0.9641  1.4519
H       0.5729  -2.3441  1.1293
H       1.4854  -1.1349  1.6857
H       3.3089  -1.0257  -1.5703
H       3.1463  -0.0921  -0.1112
H       -0.7863  -2.2882  -1.0445
H       -1.1948  -1.0446  -1.9888
