27

Co      0.0229  0.0142  0.0160
Cl      -1.0866  1.6146  -1.2261
Cl      1.1276  1.4054  1.3291
C       2.6555  -0.7030  -0.8438
C       2.1248  -1.9258  -0.0795
C       -2.5013  -1.3180  -0.4482
C       -2.4368  -1.1479  1.0703
N       1.4855  0.0822  -1.3182
N       1.0160  -1.4912  0.8329
N       -1.1025  -1.2961  -0.9985
N       -1.4577  -0.0616  1.3622
H       2.9561  -2.4147  0.4034
H       1.6702  -2.6361  -0.7540
H       -2.9868  -0.4865  -0.9306
H       -3.0556  -2.2203  -0.6624
H       1.7512  1.0429  -1.4567
H       1.2813  -0.2513  -2.2464
H       -1.9307  0.8238  1.3061
H       -1.1513  -0.1253  2.3154
H       -2.0736  -2.0364  1.5725
H       -3.4302  -0.9485  1.4483
H       0.4825  -2.2989  1.1036
H       1.4843  -1.1944  1.6808
H       3.3379  -1.0668  -1.6025
H       3.1911  -0.0320  -0.1940
H       -0.7940  -2.2473  -1.0279
H       -1.1810  -1.0058  -1.9563
