27

Co      0.0000  -0.0056  0.0014
Cl      -1.0842  1.6022  -1.2058
Cl      1.1502  1.4268  1.3522
C       2.6301  -0.7152  -0.8008
C       2.1135  -1.8977  -0.0918
C       -2.5162  -1.2867  -0.4443
C       -2.3937  -1.1551  1.0533
N       1.5000  0.0748  -1.3124
N       1.0914  -1.4896  0.8375
N       -1.1396  -1.3217  -1.0220
N       -1.4786  -0.0244  1.3288
H       2.9197  -2.4201  0.3973
H       1.6740  -2.5830  -0.8025
H       -3.0141  -0.4276  -0.8531
H       -3.0702  -2.1681  -0.7229
H       1.7455  1.0454  -1.3849
H       1.2349  -0.2162  -2.2318
H       -1.9406  0.8603  1.2189
H       -1.1305  -0.0399  2.2654
H       -1.9733  -2.0476  1.4971
H       -3.3639  -0.9968  1.4989
H       0.5792  -2.2883  1.1533
H       1.5063  -1.0667  1.6471
H       3.2535  -1.0619  -1.6104
H       3.2263  -0.0881  -0.1606
H       -0.7881  -2.2583  -1.0071
H       -1.1841  -1.0278  -1.9793
