27

Co      -0.0251  -0.0084  -0.0176
Cl      -1.0855  1.6116  -1.2119
Cl      1.1864  1.4791  1.3987
C       2.6921  -0.7173  -0.7947
C       2.1340  -1.9397  -0.1312
C       -2.5285  -1.3087  -0.4338
C       -2.4401  -1.1669  1.0631
N       1.5268  0.0302  -1.3484
N       1.0894  -1.4760  0.8341
N       -1.1438  -1.3166  -1.0122
N       -1.5035  -0.0576  1.3543
H       2.8529  -2.4984  0.4581
H       1.7143  -2.6093  -0.8689
H       -3.0839  -0.4713  -0.8214
H       -3.0016  -2.2188  -0.7758
H       1.7046  1.0170  -1.4062
H       1.1791  -0.2688  -2.2396
H       -1.9138  0.8527  1.2455
H       -1.0999  -0.0878  2.2725
H       -2.0768  -2.0848  1.5016
H       -3.3970  -0.9497  1.5060
H       0.5491  -2.2438  1.1755
H       1.4574  -0.9606  1.6191
H       3.3461  -0.9175  -1.6301
H       3.2289  -0.1185  -0.0783
H       -0.7137  -2.2257  -0.9999
H       -1.1659  -0.9804  -1.9541
