27

Co      -0.0322  0.0081  -0.0105
Cl      -1.0879  1.6061  -1.2066
Cl      1.1908  1.4855  1.3964
C       2.7429  -0.7196  -0.8374
C       2.1834  -1.9959  -0.0932
C       -2.5819  -1.3270  -0.4629
C       -2.4367  -1.1902  1.0644
N       1.5163  0.0795  -1.3474
N       1.0724  -1.5102  0.8546
N       -1.1728  -1.3190  -0.9982
N       -1.4813  -0.0383  1.3134
H       2.9219  -2.5778  0.4488
H       1.7165  -2.6475  -0.8219
H       -3.0743  -0.4524  -0.8625
H       -3.1183  -2.2059  -0.7895
H       1.7282  1.0626  -1.4020
H       1.2634  -0.2033  -2.2726
H       -1.9541  0.8449  1.2351
H       -1.0967  -0.0614  2.2410
H       -2.0124  -2.0794  1.5111
H       -3.3829  -1.0018  1.5472
H       0.5363  -2.2833  1.2004
H       1.4978  -1.0673  1.6496
H       3.3811  -0.9800  -1.6680
H       3.2925  -0.0699  -0.1722
H       -0.7782  -2.2441  -0.9448
H       -1.1850  -1.0520  -1.9653
