27

Co      0.0232  -0.0041  0.0126
Cl      -1.0901  1.6208  -1.2240
Cl      1.1283  1.4061  1.3306
C       2.6329  -0.6934  -0.8333
C       2.1094  -1.9123  -0.0829
C       -2.4869  -1.2936  -0.4448
C       -2.4023  -1.1393  1.0651
N       1.4863  0.1015  -1.3359
N       1.0354  -1.5169  0.8814
N       -1.1076  -1.3393  -1.0400
N       -1.4674  -0.0287  1.3755
H       2.9127  -2.4156  0.4227
H       1.6693  -2.6143  -0.7771
H       -2.9807  -0.4420  -0.8741
H       -3.0442  -2.1784  -0.7078
H       1.7119  1.0742  -1.4052
H       1.1946  -0.1867  -2.2509
H       -1.9114  0.8658  1.2769
H       -1.1262  -0.0680  2.3145
H       -2.0209  -2.0372  1.5284
H       -3.3844  -0.9575  1.4741
H       0.4836  -2.3202  1.1261
H       1.4376  -1.1587  1.7314
H       3.2721  -1.0103  -1.6426
H       3.2058  -0.0618  -0.1793
H       -0.7695  -2.2784  -1.0692
H       -1.1621  -1.0042  -1.9830
