27

Co      0.0251  0.0160  0.0159
Cl      -1.1023  1.6323  -1.2306
Cl      1.1400  1.4155  1.3376
C       2.6543  -0.7114  -0.8222
C       2.1412  -1.9409  -0.0938
C       -2.5420  -1.3143  -0.4472
C       -2.4199  -1.1571  1.0543
N       1.4880  0.0772  -1.2987
N       1.0797  -1.5094  0.8665
N       -1.1514  -1.3359  -1.0167
N       -1.4642  -0.0526  1.3288
H       2.9408  -2.4497  0.4175
H       1.6985  -2.6418  -0.7884
H       -3.0548  -0.4745  -0.8798
H       -3.0749  -2.2147  -0.7082
H       1.7247  1.0480  -1.3942
H       1.1835  -0.2245  -2.2038
H       -1.9138  0.8407  1.2318
H       -1.1219  -0.0857  2.2688
H       -2.0323  -2.0604  1.5042
H       -3.3810  -0.9594  1.5029
H       0.5345  -2.3002  1.1544
H       1.5030  -1.1241  1.6914
H       3.2941  -0.9919  -1.6446
H       3.2216  -0.0870  -0.1535
H       -0.7992  -2.2710  -1.0138
H       -1.1945  -1.0303  -1.9700
