27

Co      0.0129  0.0128  -0.0057
Cl      -1.0765  1.5890  -1.2032
Cl      1.1442  1.4181  1.3436
C       2.6335  -0.7076  -0.8281
C       2.1355  -1.9353  -0.0832
C       -2.5088  -1.3013  -0.4459
C       -2.3992  -1.1370  1.0631
N       1.4708  0.0997  -1.2835
N       1.0711  -1.5023  0.8699
N       -1.1467  -1.3547  -1.0854
N       -1.4790  -0.0133  1.3752
H       2.9451  -2.4205  0.4354
H       1.7003  -2.6535  -0.7630
H       -3.0149  -0.4536  -0.8703
H       -3.0782  -2.1863  -0.6841
H       1.7141  1.0705  -1.3469
H       1.1681  -0.1713  -2.2001
H       -1.9325  0.8780  1.2936
H       -1.1231  -0.0633  2.3084
H       -2.0009  -2.0284  1.5223
H       -3.3815  -0.9705  1.4792
H       0.5304  -2.2900  1.1689
H       1.4870  -1.0953  1.6873
H       3.2535  -0.9889  -1.6647
H       3.2188  -0.0873  -0.1698
H       -0.8101  -2.2955  -1.1292
H       -1.2278  -1.0127  -2.0263
