27

Co      -0.0009  -0.0156  0.0008
Cl      -1.1035  1.6334  -1.2302
Cl      1.1736  1.4638  1.3747
C       2.7148  -0.7111  -0.8355
C       2.1752  -1.9923  -0.0826
C       -2.5667  -1.3428  -0.4568
C       -2.4436  -1.1655  1.0730
N       1.4827  0.0953  -1.3046
N       1.0772  -1.4914  0.8681
N       -1.1699  -1.3113  -1.0388
N       -1.4642  -0.0383  1.3302
H       2.9197  -2.5650  0.4538
H       1.6979  -2.6501  -0.7995
H       -3.0873  -0.4932  -0.8691
H       -3.0878  -2.2412  -0.7526
H       1.6899  1.0789  -1.3467
H       1.2081  -0.1704  -2.2301
H       -1.9098  0.8582  1.2386
H       -1.0978  -0.0664  2.2648
H       -2.0688  -2.0549  1.5585
H       -3.4011  -0.9329  1.5130
H       0.5291  -2.2534  1.2201
H       1.5110  -1.0449  1.6577
H       3.3268  -0.9626  -1.6905
H       3.2878  -0.0722  -0.1812
H       -0.7923  -2.2399  -1.0874
H       -1.2207  -0.9533  -1.9748
