27

Co      0.0249  -0.0022  0.0124
Cl      -1.0969  1.6293  -1.2274
Cl      1.1299  1.3990  1.3339
C       2.6045  -0.6939  -0.8119
C       2.0794  -1.8745  -0.1074
C       -2.4828  -1.2866  -0.4370
C       -2.4019  -1.1325  1.0569
N       1.5029  0.0626  -1.3232
N       1.0751  -1.4972  0.8824
N       -1.1126  -1.3283  -1.0366
N       -1.4769  -0.0475  1.3611
H       2.9649  -2.3725  0.2824
H       1.5857  -2.5642  -0.7750
H       -2.9676  -0.4579  -0.9243
H       -3.0692  -2.1832  -0.6009
H       1.7777  1.0204  -1.4734
H       1.3113  -0.2876  -2.2485
H       -1.9559  0.8329  1.2734
H       -1.1900  -0.0919  2.3214
H       -1.9968  -2.0229  1.5196
H       -3.4040  -0.9992  1.4433
H       0.6102  -2.3305  1.1969
H       1.5797  -1.1692  1.6927
H       3.3488  -1.0682  -1.5167
H       3.1008  -0.0387  -0.1200
H       -0.8484  -2.2970  -1.0823
H       -1.2115  -1.0302  -1.9902
