27

Co      -0.0278  -0.0291  -0.0210
Cl      -1.0979  1.6332  -1.2198
Cl      1.1758  1.4652  1.3849
C       2.6629  -0.7068  -0.7944
C       2.1294  -1.9392  -0.1188
C       -2.5181  -1.2823  -0.4333
C       -2.4123  -1.1671  1.0609
N       1.5154  0.0639  -1.3518
N       1.1086  -1.5247  0.8930
N       -1.1230  -1.2952  -0.9848
N       -1.4869  -0.0448  1.3210
H       2.8824  -2.4934  0.4206
H       1.6948  -2.6075  -0.8508
H       -3.0609  -0.4316  -0.8094
H       -2.9911  -2.1847  -0.7992
H       1.6934  1.0561  -1.3430
H       1.1906  -0.1807  -2.2665
H       -1.9063  0.8591  1.1824
H       -1.0832  -0.0374  2.2391
H       -2.0167  -2.0831  1.4769
H       -3.3592  -0.9695  1.5362
H       0.6039  -2.3107  1.2476
H       1.4839  -0.9939  1.6677
H       3.3102  -0.9183  -1.6325
H       3.2108  -0.1126  -0.0858
H       -0.6904  -2.2029  -0.9349
H       -1.1240  -0.9862  -1.9366
