27

Co      0.0320  -0.0017  0.0015
Cl      -1.0943  1.6178  -1.2195
Cl      1.1523  1.4352  1.3566
C       2.6209  -0.7191  -0.8234
C       2.1145  -1.8926  -0.1037
C       -2.5190  -1.2992  -0.4303
C       -2.4279  -1.1493  1.0612
N       1.4963  0.0505  -1.2700
N       1.0644  -1.4675  0.8163
N       -1.1463  -1.3292  -1.0301
N       -1.4956  -0.0617  1.3398
H       2.9881  -2.3351  0.3649
H       1.6742  -2.6357  -0.7511
H       -3.0106  -0.4730  -0.9127
H       -3.0974  -2.2007  -0.6010
H       1.7844  1.0084  -1.4068
H       1.2871  -0.2719  -2.1975
H       -1.9759  0.8141  1.2231
H       -1.2230  -0.0798  2.3077
H       -2.0257  -2.0380  1.5271
H       -3.4236  -1.0029  1.4547
H       0.5744  -2.2840  1.1327
H       1.5504  -1.1301  1.6323
H       3.3240  -1.0754  -1.5657
H       3.1505  -0.0722  -0.1461
H       -0.8803  -2.2985  -1.0832
H       -1.2559  -1.0332  -1.9862
