27

Co      -0.0231  -0.0100  -0.0255
Cl      -1.0943  1.6170  -1.2127
Cl      1.1937  1.4880  1.4024
C       2.6740  -0.7184  -0.8104
C       2.1519  -1.9569  -0.1061
C       -2.5681  -1.3208  -0.4411
C       -2.4371  -1.1707  1.0589
N       1.5133  0.0690  -1.3262
N       1.1192  -1.5244  0.8873
N       -1.1754  -1.2928  -1.0043
N       -1.4797  -0.0596  1.2963
H       2.9580  -2.4945  0.3769
H       1.6850  -2.6326  -0.8078
H       -3.1112  -0.4920  -0.8678
H       -3.0645  -2.2378  -0.7189
H       1.7459  1.0491  -1.3591
H       1.2729  -0.1928  -2.2604
H       -1.9336  0.8329  1.2056
H       -1.1038  -0.0812  2.2258
H       -2.0364  -2.0696  1.5052
H       -3.3903  -0.9721  1.5231
H       0.6445  -2.3209  1.2711
H       1.5660  -1.0453  1.6521
H       3.3497  -0.9842  -1.6085
H       3.2061  -0.0899  -0.1163
H       -0.7919  -2.2210  -0.9913
H       -1.2230  -1.0000  -1.9618
