27

Co      0.0049  0.0136  0.0027
Cl      -1.0776  1.5992  -1.2069
Cl      1.1416  1.4110  1.3459
C       2.6050  -0.6947  -0.7851
C       2.0931  -1.9068  -0.0921
C       -2.5094  -1.3102  -0.4594
C       -2.3903  -1.1372  1.0479
N       1.4600  0.0672  -1.3046
N       1.0922  -1.4884  0.8532
N       -1.1309  -1.3200  -1.0330
N       -1.4335  -0.0375  1.3270
H       2.9495  -2.4567  0.2952
H       1.5881  -2.5545  -0.7969
H       -2.9907  -0.4678  -0.9276
H       -3.0954  -2.1984  -0.6504
H       1.7368  1.0241  -1.4779
H       1.2795  -0.3049  -2.2260
H       -1.9189  0.8465  1.2971
H       -1.1009  -0.1121  2.2679
H       -1.9888  -2.0199  1.5299
H       -3.3749  -0.9676  1.4595
H       0.6167  -2.2937  1.2145
H       1.6003  -1.1197  1.6415
H       3.3107  -1.0640  -1.5217
H       3.1226  -0.0237  -0.1227
H       -0.8300  -2.2749  -1.0264
H       -1.2101  -1.0623  -2.0006
